                                  MODFLOW-2000
      U.S. GEOLOGICAL SURVEY MODULAR FINITE-DIFFERENCE GROUND-WATER FLOW MODEL
                           VERSION 1.19.01 03/25/2010


 This model run produced both GLOBAL and LIST files.  This is the GLOBAL file.

 GLOBAL LISTING FILE: "A.glo"
                         UNIT  701

 OPENING "A.out"
 FILE TYPE:LIST   UNIT  702   STATUS:REPLACE
 FORMAT:FORMATTED              ACCESS:SEQUENTIAL          

 OPENING "A.hed"
 FILE TYPE:DATA(BINARY)   UNIT  730   STATUS:UNKNOWN
 FORMAT:BINARY                 ACCESS:SEQUENTIAL          

 OPENING "A.ccf"
 FILE TYPE:DATA(BINARY)   UNIT  740   STATUS:UNKNOWN
 FORMAT:BINARY                 ACCESS:SEQUENTIAL          

 OPENING "A.lmt"
 FILE TYPE:LMT6   UNIT  718   STATUS:OLD    
 FORMAT:FORMATTED              ACCESS:SEQUENTIAL          
#                                                                                                                                                                                                       
# Obs-Sen-Pes Process Input Files                                                                                                                                                                       

 OPENING "A.obs"
 FILE TYPE:OBS   UNIT  750   STATUS:OLD    
 FORMAT:FORMATTED              ACCESS:SEQUENTIAL          

 OPENING "A.hob"
 FILE TYPE:HOB   UNIT  751   STATUS:OLD    
 FORMAT:FORMATTED              ACCESS:SEQUENTIAL          

 OPENING "A.gbob"
 FILE TYPE:GBOB   UNIT  753   STATUS:OLD    
 FORMAT:FORMATTED              ACCESS:SEQUENTIAL          

 OPENING "A.drob"
 FILE TYPE:DROB   UNIT  754   STATUS:OLD    
 FORMAT:FORMATTED              ACCESS:SEQUENTIAL          

 OPENING "A.chob"
 FILE TYPE:CHOB   UNIT  755   STATUS:OLD    
 FORMAT:FORMATTED              ACCESS:SEQUENTIAL          

 OPENING "A.stob"
 FILE TYPE:STOB   UNIT  756   STATUS:OLD    
 FORMAT:FORMATTED              ACCESS:SEQUENTIAL          

 OPENING A.snn_1
 FILE TYPE:SEN   UNIT  757   STATUS:OLD    
 FORMAT:FORMATTED              ACCESS:SEQUENTIAL          
#PES          758 "A.pes"                                                                                                                                                                               
#ASP          771 "A.asp"                                                                                                                                                                               
#                                                                                                                                                                                                       
# Global Input Files                                                                                                                                                                                    

 OPENING "A.dis"
 FILE TYPE:DIS   UNIT  719   STATUS:OLD    
 FORMAT:FORMATTED              ACCESS:SEQUENTIAL          
#                                                                                                                                                                                                       
# Flow Process Input Files                                                                                                                                                                              

 OPENING "A.ba6"
 FILE TYPE:BAS6   UNIT  703   STATUS:OLD    
 FORMAT:FORMATTED              ACCESS:SEQUENTIAL          

 OPENING "A.lpf"
 FILE TYPE:LPF   UNIT  704   STATUS:OLD    
 FORMAT:FORMATTED              ACCESS:SEQUENTIAL          

 OPENING "A.oc"
 FILE TYPE:OC   UNIT  715   STATUS:OLD    
 FORMAT:FORMATTED              ACCESS:SEQUENTIAL          

 OPENING "A.rch"
 FILE TYPE:RCH   UNIT  716   STATUS:OLD    
 FORMAT:FORMATTED              ACCESS:SEQUENTIAL          

 OPENING "A.drn"
 FILE TYPE:DRN   UNIT  710   STATUS:OLD    
 FORMAT:FORMATTED              ACCESS:SEQUENTIAL          

 OPENING "A.ghb"
 FILE TYPE:GHB   UNIT  711   STATUS:OLD    
 FORMAT:FORMATTED              ACCESS:SEQUENTIAL          

 OPENING "A.str"
 FILE TYPE:STR   UNIT  717   STATUS:OLD    
 FORMAT:FORMATTED              ACCESS:SEQUENTIAL          

 OPENING "A.chd"
 FILE TYPE:CHD   UNIT  713   STATUS:OLD    
 FORMAT:FORMATTED              ACCESS:SEQUENTIAL          

 OPENING "A.pcg"
 FILE TYPE:PCG   UNIT  714   STATUS:OLD    
 FORMAT:FORMATTED              ACCESS:SEQUENTIAL          
# ASP data                                                                                                                                                                                              

 FILE TYPE:ASP: FILE = A.asp_1

 THE FREE FORMAT OPTION HAS BEEN SELECTED

 DISCRETIZATION INPUT DATA READ FROM UNIT  719
 # MF2K DISCRETIZATION FILE
 #
 #
 # NLAY NROW NCOL NPER TIMEUNITS LENUNITS
   16 LAYERS       175 ROWS       135 COLUMNS
    1 STRESS PERIOD(S) IN SIMULATION
 MODEL TIME UNIT IS DAYS
 MODEL LENGTH UNIT IS METERS
 THE GROUND-WATER TRANSPORT PROCESS IS INACTIVE

 THE OBSERVATION PROCESS IS ACTIVE
 THE SENSITIVITY PROCESS IS ACTIVE
 THE PARAMETER-ESTIMATION PROCESS IS INACTIVE

 MODE: FORWARD WITH OBSERVATIONS AND PARAMETER-VALUE SUBSTITUTION

  Confining bed flag for each layer:
   0   0   0   0   0   0   0   0   0   0   0   0   0   0   0   0

    3402310  ELEMENTS OF GX ARRAY USED OUT OF    3402310
     378000  ELEMENTS OF GZ ARRAY USED OUT OF     378000
     378000  ELEMENTS OF IG ARRAY USED OUT OF     378000

 -------------------------------------------------------------------------------

 VARIABLES READ FROM ASP INPUT FILE:-

 NOSTOP = 1          : DO NOT CEASE EXECUTION IF MODFLOW FAILS TO CONVERGE.
 HYDRYBOT = 1        : ASSIGN CELL BOTTOM ELEVATION TO HEAD IN DRY CELLS.
 MINTHICK =     0.000: DO NOT PREVENT BASAL CELLS DRYING OUT.
 LIMOP = 0           : NO LIMITATIONS ON OBSERVATION OR SENSITIVITY OUTPUT.

 -------------------------------------------------------------------------------




                               DELR
 READING ON UNIT  719 WITH FORMAT: (FREE)              



                               DELC
 READING ON UNIT  719 WITH FORMAT: (FREE)              


 STRESS PERIOD     LENGTH       TIME STEPS     MULTIPLIER FOR DELT    SS FLAG
 ----------------------------------------------------------------------------
        1         1.000000          1                    1.000         SS

 STEADY-STATE SIMULATION




 LPF1 -- LAYER PROPERTY FLOW PACKAGE, VERSION 1, 1/11/2000
         INPUT READ FROM UNIT  704
 CELL-BY-CELL FLOWS WILL BE SAVED ON UNIT  740
 HEAD AT CELLS THAT CONVERT TO DRY= layer bottom elevation.
 No named parameters

   LAYER FLAGS:
 LAYER       LAYTYP        LAYAVG         CHANI        LAYVKA        LAYWET
 ---------------------------------------------------------------------------
    1             1             0    -1.000E+00             1             0
    2             1             0    -1.000E+00             1             0
    3             1             0    -1.000E+00             1             0
    4             1             0    -1.000E+00             1             0
    5             1             0    -1.000E+00             1             0
    6             1             0    -1.000E+00             1             0
    7             1             0    -1.000E+00             1             0
    8             1             0    -1.000E+00             1             0
    9             1             0    -1.000E+00             1             0
   10             1             0    -1.000E+00             1             0
   11             1             0    -1.000E+00             1             0
   12             1             0    -1.000E+00             1             0
   13             1             0    -1.000E+00             1             0
   14             1             0    -1.000E+00             1             0
   15             1             0    -1.000E+00             1             0
   16             1             0    -1.000E+00             1             0

   INTERPRETATION OF LAYER FLAGS:
                        INTERBLOCK     HORIZONTAL    DATA IN
         LAYER TYPE   TRANSMISSIVITY   ANISOTROPY   ARRAY VKA   WETTABILITY
 LAYER      (LAYTYP)      (LAYAVG)       (CHANI)      (LAYVKA)      (LAYWET)
 ---------------------------------------------------------------------------
    1   CONVERTIBLE      HARMONIC      VARIABLE    ANISOTROPY  NON-WETTABLE
    2   CONVERTIBLE      HARMONIC      VARIABLE    ANISOTROPY  NON-WETTABLE
    3   CONVERTIBLE      HARMONIC      VARIABLE    ANISOTROPY  NON-WETTABLE
    4   CONVERTIBLE      HARMONIC      VARIABLE    ANISOTROPY  NON-WETTABLE
    5   CONVERTIBLE      HARMONIC      VARIABLE    ANISOTROPY  NON-WETTABLE
    6   CONVERTIBLE      HARMONIC      VARIABLE    ANISOTROPY  NON-WETTABLE
    7   CONVERTIBLE      HARMONIC      VARIABLE    ANISOTROPY  NON-WETTABLE
    8   CONVERTIBLE      HARMONIC      VARIABLE    ANISOTROPY  NON-WETTABLE
    9   CONVERTIBLE      HARMONIC      VARIABLE    ANISOTROPY  NON-WETTABLE
   10   CONVERTIBLE      HARMONIC      VARIABLE    ANISOTROPY  NON-WETTABLE
   11   CONVERTIBLE      HARMONIC      VARIABLE    ANISOTROPY  NON-WETTABLE
   12   CONVERTIBLE      HARMONIC      VARIABLE    ANISOTROPY  NON-WETTABLE
   13   CONVERTIBLE      HARMONIC      VARIABLE    ANISOTROPY  NON-WETTABLE
   14   CONVERTIBLE      HARMONIC      VARIABLE    ANISOTROPY  NON-WETTABLE
   15   CONVERTIBLE      HARMONIC      VARIABLE    ANISOTROPY  NON-WETTABLE
   16   CONVERTIBLE      HARMONIC      VARIABLE    ANISOTROPY  NON-WETTABLE

    1488375 ELEMENTS IN X ARRAY ARE USED BY LPF
         96 ELEMENTS IN IX ARRAY ARE USED BY LPF

 PCG2 -- CONJUGATE GRADIENT SOLUTION PACKAGE, VERSION 2.4, 12/29/98
 MAXIMUM OF     22 CALLS OF SOLUTION ROUTINE
 MAXIMUM OF     50 INTERNAL ITERATIONS PER CALL TO SOLUTION ROUTINE
 MATRIX PRECONDITIONING TYPE :    1
     758200 ELEMENTS IN X ARRAY ARE USED BY PCG
       7700 ELEMENTS IN IX ARRAY ARE USED BY PCG
    1512000 ELEMENTS IN Z ARRAY ARE USED BY PCG

 SEN1BAS6 -- SENSITIVITY PROCESS, VERSION 1.0, 10/15/98
 INPUT READ FROM UNIT  757

 NUMBER OF PARAMETER VALUES TO BE READ FROM SEN FILE:  108
 ISENALL............................................:   -1
 SENSITIVITY PROCESS HAS BEEN DEACTIVATED BECAUSE ISENALL<0

     378757 ELEMENTS IN X ARRAY ARE USED FOR SENSITIVITIES
     378000 ELEMENTS IN Z ARRAY ARE USED FOR SENSITIVITIES
        216 ELEMENTS IN IX ARRAY ARE USED FOR SENSITIVITIES

 OBS1BAS6 -- OBSERVATION PROCESS, VERSION 1.0, 4/27/99
 INPUT READ FROM UNIT 750
 OBSERVATION GRAPH-DATA OUTPUT FILES
 WILL BE PRINTED AND NAMED USING THE BASE: A

 HEAD OBSERVATIONS -- INPUT READ FROM UNIT 751
 #           CoverageGUID ObjectType ID X Y Time OBNAME
 #GMSCOMMENT 10a73331-5e26-4e6d-b222-2ed8f10df474 POINT 1, 338021.63, 7388997.16 ts_0 hed1
 #GMSCOMMENT 10a73331-5e26-4e6d-b222-2ed8f10df474 POINT 2, 337978.06, 7389033.79 ts_0 hed2
 #GMSCOMMENT 10a73331-5e26-4e6d-b222-2ed8f10df474 POINT 3, 338012.23, 7389006.21 ts_0 hed3
 #GMSCOMMENT 10a73331-5e26-4e6d-b222-2ed8f10df474 POINT 4, 338014.91, 7388979.88 ts_0 hed4
 #GMSCOMMENT 10a73331-5e26-4e6d-b222-2ed8f10df474 POINT 5, 338015.82, 7388955.87 ts_0 hed5
 #GMSCOMMENT 10a73331-5e26-4e6d-b222-2ed8f10df474 POINT 6, 338030.74, 7388984.03 ts_0 hed6
 #GMSCOMMENT 10a73331-5e26-4e6d-b222-2ed8f10df474 POINT 7, 338059.78, 7388963.36 ts_0 hed7
 #GMSCOMMENT 10a73331-5e26-4e6d-b222-2ed8f10df474 POINT 8, 337959.16, 7388911.32 ts_0 hed8
 #GMSCOMMENT 10a73331-5e26-4e6d-b222-2ed8f10df474 POINT 9, 337877.3, 7388954.52 ts_0 hed9
 #GMSCOMMENT 10a73331-5e26-4e6d-b222-2ed8f10df474 POINT 10, 338009.84, 7388932.46 ts_0 hed10
 #GMSCOMMENT 10a73331-5e26-4e6d-b222-2ed8f10df474 POINT 11, 337905.34, 7388997.01 ts_0 hed11
 #GMSCOMMENT 10a73331-5e26-4e6d-b222-2ed8f10df474 POINT 12, 337954.75, 7389002.55 ts_0 hed12
 #GMSCOMMENT 10a73331-5e26-4e6d-b222-2ed8f10df474 POINT 13, 337968.68, 7389000.4 ts_0 hed13
 #GMSCOMMENT 10a73331-5e26-4e6d-b222-2ed8f10df474 POINT 14, 338070.46, 7388945.25 ts_0 hed14
 #GMSCOMMENT 10a73331-5e26-4e6d-b222-2ed8f10df474 POINT 15, 338000.65, 7388995.68 ts_0 hed15
 #GMSCOMMENT 10a73331-5e26-4e6d-b222-2ed8f10df474 POINT 16, 338043.2, 7388978.73 ts_0 hed16
 #GMSCOMMENT 10a73331-5e26-4e6d-b222-2ed8f10df474 POINT 18, 338051.18, 7388935.93 ts_0 hed17
 #GMSCOMMENT 10a73331-5e26-4e6d-b222-2ed8f10df474 POINT 19, 337967.9, 7388952.87 ts_0 hed18
 #GMSCOMMENT 10a73331-5e26-4e6d-b222-2ed8f10df474 POINT 20, 337962.21, 7388983.95 ts_0 hed19
 #GMSCOMMENT 10a73331-5e26-4e6d-b222-2ed8f10df474 POINT 21, 337929.38, 7388916.84 ts_0 hed20
 #GMSCOMMENT 10a73331-5e26-4e6d-b222-2ed8f10df474 POINT 22, 337983.43, 7388875.1 ts_0 hed21
 #GMSCOMMENT 10a73331-5e26-4e6d-b222-2ed8f10df474 POINT 23, 338044.1, 7388895.51 ts_0 hed22
 #GMSCOMMENT 10a73331-5e26-4e6d-b222-2ed8f10df474 POINT 24, 337949.68, 7388929.65 ts_0 hed23
 #GMSCOMMENT 10a73331-5e26-4e6d-b222-2ed8f10df474 POINT 25, 337867.7, 7388924.14 ts_0 hed24
 #GMSCOMMENT 10a73331-5e26-4e6d-b222-2ed8f10df474 POINT 26, 337956.26, 7388894.46 ts_0 hed25
 #GMSCOMMENT 10a73331-5e26-4e6d-b222-2ed8f10df474 POINT 27, 337936.18, 7388946.67 ts_0 hed26
 #GMSCOMMENT 10a73331-5e26-4e6d-b222-2ed8f10df474 POINT 28, 337945.36, 7388867.55 ts_0 hed27
 #GMSCOMMENT 10a73331-5e26-4e6d-b222-2ed8f10df474 POINT 29, 337884.53, 7388861.72 ts_0 hed28
 #GMSCOMMENT 10a73331-5e26-4e6d-b222-2ed8f10df474 POINT 30, 338024.87, 7388871.01 ts_0 hed29
 #GMSCOMMENT 10a73331-5e26-4e6d-b222-2ed8f10df474 POINT 31, 337907.45, 7388953.6 ts_0 hed30
 #GMSCOMMENT 10a73331-5e26-4e6d-b222-2ed8f10df474 POINT 32, 337856.87, 7388869.15 ts_0 hed31
 #GMSCOMMENT 10a73331-5e26-4e6d-b222-2ed8f10df474 POINT 33, 337941.87, 7388901.89 ts_0 hed32
 #GMSCOMMENT 10a73331-5e26-4e6d-b222-2ed8f10df474 POINT 34, 337961.85, 7388888.2 ts_0 hed33
 #GMSCOMMENT 10a73331-5e26-4e6d-b222-2ed8f10df474 POINT 35, 337968.38, 7388839.15 ts_0 hed34
 #GMSCOMMENT 10a73331-5e26-4e6d-b222-2ed8f10df474 POINT 36, 337923.55, 7388863.25 ts_0 hed35
 #GMSCOMMENT 10a73331-5e26-4e6d-b222-2ed8f10df474 POINT 37, 338004.47, 7388900.45 ts_0 hed36
 #GMSCOMMENT 10a73331-5e26-4e6d-b222-2ed8f10df474 POINT 38, 337887.86, 7388832.5 ts_0 hed37
 #GMSCOMMENT 10a73331-5e26-4e6d-b222-2ed8f10df474 POINT 39, 337909.49, 7388884.78 ts_0 hed38
 #GMSCOMMENT 10a73331-5e26-4e6d-b222-2ed8f10df474 POINT 40, 337961.08, 7388844.11 ts_0 hed39
 #GMSCOMMENT 10a73331-5e26-4e6d-b222-2ed8f10df474 POINT 41, 337948.87, 7388809.96 ts_0 hed40
 #GMSCOMMENT 10a73331-5e26-4e6d-b222-2ed8f10df474 POINT 43, 337905.32, 7388916.43 ts_0 hed41
 #GMSCOMMENT 10a73331-5e26-4e6d-b222-2ed8f10df474 POINT 44, 337939.63, 7388790.57 ts_0 hed42
 #GMSCOMMENT 10a73331-5e26-4e6d-b222-2ed8f10df474 POINT 45, 337897.07, 7388791.72 ts_0 hed43
 #GMSCOMMENT 10a73331-5e26-4e6d-b222-2ed8f10df474 POINT 46, 337851.09, 7388826.71 ts_0 hed44
 #GMSCOMMENT 10a73331-5e26-4e6d-b222-2ed8f10df474 POINT 47, 337921.74, 7388762.32 ts_0 hed45
 #GMSCOMMENT 10a73331-5e26-4e6d-b222-2ed8f10df474 POINT 48, 337934.6, 7388831.48 ts_0 hed46
 #GMSCOMMENT 10a73331-5e26-4e6d-b222-2ed8f10df474 POINT 49, 337924.93, 7388810.61 ts_0 hed47
 #GMSCOMMENT 10a73331-5e26-4e6d-b222-2ed8f10df474 POINT 50, 337914.16, 7388728.04 ts_0 hed48
 #GMSCOMMENT 10a73331-5e26-4e6d-b222-2ed8f10df474 POINT 51, 337868.37, 7388808.23 ts_0 hed49
 #GMSCOMMENT 10a73331-5e26-4e6d-b222-2ed8f10df474 POINT 52, 337912.13, 7388786.52 ts_0 hed50
 #GMSCOMMENT 10a73331-5e26-4e6d-b222-2ed8f10df474 POINT 53, 337875.13, 7388777.9 ts_0 hed51
 #GMSCOMMENT 10a73331-5e26-4e6d-b222-2ed8f10df474 POINT 54, 337857.65, 7388759.5 ts_0 hed52
 #GMSCOMMENT 10a73331-5e26-4e6d-b222-2ed8f10df474 POINT 55, 337931.8, 7388762.01 ts_0 hed53
 #GMSCOMMENT 10a73331-5e26-4e6d-b222-2ed8f10df474 POINT 56, 337832.6, 7388755.84 ts_0 hed54
 #GMSCOMMENT 10a73331-5e26-4e6d-b222-2ed8f10df474 POINT 57, 337831.22, 7388807.0 ts_0 hed55
 #GMSCOMMENT 10a73331-5e26-4e6d-b222-2ed8f10df474 POINT 58, 337891.15, 7388735.14 ts_0 hed56
 #GMSCOMMENT 10a73331-5e26-4e6d-b222-2ed8f10df474 POINT 59, 337868.94, 7388745.12 ts_0 hed57
 #GMSCOMMENT 10a73331-5e26-4e6d-b222-2ed8f10df474 POINT 60, 337884.91, 7388753.39 ts_0 hed58

 NUMBER OF HEADS....................................:   58
   NUMBER OF MULTILAYER HEADS.......................:    0
   MAXIMUM NUMBER OF LAYERS FOR MULTILAYER HEADS....:   16

 OBS1DRN6 -- OBSERVATION PROCESS (DRAIN FLOW OBSERVATIONS)
 VERSION 1.0, 10/15/98
 INPUT READ FROM UNIT  754
 #           CoverageGUID ObjectType ID X Y Time OBNAME
 #GMSCOMMENT d4c20f56-b00d-4736-a5b5-6c0c2d3a443c ARC 1 337218.5 7390488.45 1.0 drnf0
 #GMSCOMMENT d4c20f56-b00d-4736-a5b5-6c0c2d3a443c ARC 10 338850.05963671 7389197.9961547 1.0 drnf1
 #GMSCOMMENT d4c20f56-b00d-4736-a5b5-6c0c2d3a443c ARC 11 338874.12874755 7389031.3977612 1.0 drnf2
 #GMSCOMMENT d4c20f56-b00d-4736-a5b5-6c0c2d3a443c ARC 12 338856.08592246 7388841.8189286 1.0 drnf3
 #GMSCOMMENT d4c20f56-b00d-4736-a5b5-6c0c2d3a443c ARC 13 338832.51947284 7388516.2895947 1.0 drnf4
 #GMSCOMMENT d4c20f56-b00d-4736-a5b5-6c0c2d3a443c ARC 14 338768.54437183 7388102.4667022 1.0 drnf5
 #GMSCOMMENT d4c20f56-b00d-4736-a5b5-6c0c2d3a443c ARC 15 338708.69708917 7387711.0726131 1.0 drnf6
 #GMSCOMMENT d4c20f56-b00d-4736-a5b5-6c0c2d3a443c ARC 2 337457.8 7390508.8 1.0 drnf7
 #GMSCOMMENT d4c20f56-b00d-4736-a5b5-6c0c2d3a443c ARC 3 337668.5 7390521.9 1.0 drnf8
 #GMSCOMMENT d4c20f56-b00d-4736-a5b5-6c0c2d3a443c ARC 4 337862.3 7390368.35 1.0 drnf9
 #GMSCOMMENT d4c20f56-b00d-4736-a5b5-6c0c2d3a443c ARC 5 338076.45 7390109.85 1.0 drnf10
 #GMSCOMMENT d4c20f56-b00d-4736-a5b5-6c0c2d3a443c ARC 6 338258.0 7389942.2 1.0 drnf11
 #GMSCOMMENT d4c20f56-b00d-4736-a5b5-6c0c2d3a443c ARC 7 338443.65 7389761.9 1.0 drnf12
 #GMSCOMMENT d4c20f56-b00d-4736-a5b5-6c0c2d3a443c ARC 8 338594.16868946 7389569.6309421 1.0 drnf13
 #GMSCOMMENT d4c20f56-b00d-4736-a5b5-6c0c2d3a443c ARC 9 338716.25630121 7389401.3921001 1.0 drnf14

 NUMBER OF FLOW-OBSERVATION DRAIN-CELL GROUPS.....:     15
   NUMBER OF CELLS IN DRAIN-CELL GROUPS...........:   2041
   NUMBER OF DRAIN-CELL FLOWS.....................:     15

 OBS1GHB6 -- OBSERVATION PROCESS (GENERAL HEAD BOUNDARY FLOW OBSERVATIONS)
 VERSION 1.0, 10/15/98
 INPUT READ FROM UNIT  753
 #           CoverageGUID ObjectType ID X Y Time OBNAME
 #GMSCOMMENT 2bc4e0fb-2392-426e-b139-00e70ea21c1d ARC 10 337014.70346563 7390455.3186139 1.0 ghbf0
 #GMSCOMMENT 2bc4e0fb-2392-426e-b139-00e70ea21c1d ARC 12 338611.01684727 7387436.2780876 1.0 ghbf1
 #GMSCOMMENT 2bc4e0fb-2392-426e-b139-00e70ea21c1d ARC 14 338478.63018079 7387344.989441 1.0 ghbf2
 #GMSCOMMENT 2bc4e0fb-2392-426e-b139-00e70ea21c1d ARC 15 338362.45827847 7387270.4722807 1.0 ghbf3
 #GMSCOMMENT 2bc4e0fb-2392-426e-b139-00e70ea21c1d ARC 3 337033.17272836 7389183.6731194 1.0 ghbf4
 #GMSCOMMENT 2bc4e0fb-2392-426e-b139-00e70ea21c1d ARC 4 337041.22198293 7389380.2150356 1.0 ghbf5
 #GMSCOMMENT 2bc4e0fb-2392-426e-b139-00e70ea21c1d ARC 5 337034.33142656 7389551.752898 1.0 ghbf6
 #GMSCOMMENT 2bc4e0fb-2392-426e-b139-00e70ea21c1d ARC 6 337011.66073272 7389735.6958561 1.0 ghbf7
 #GMSCOMMENT 2bc4e0fb-2392-426e-b139-00e70ea21c1d ARC 7 337000.25373662 7389896.1747628 1.0 ghbf8
 #GMSCOMMENT 2bc4e0fb-2392-426e-b139-00e70ea21c1d ARC 8 336966.38581744 7390120.6689792 1.0 ghbf9
 #GMSCOMMENT 2bc4e0fb-2392-426e-b139-00e70ea21c1d ARC 9 336950.05713574 7390311.6865768 1.0 ghbf10

 NUMBER OF FLOW-OBSERVATION GENERAL-HEAD-CELL GROUPS:     11
   NUMBER OF CELLS IN GENERAL-HEAD-CELL GROUPS......:   1577
   NUMBER OF GENERAL-HEAD-CELL FLOWS................:     11

 OBS1STR6 -- OBSERVATION PROCESS (STREAMFLOW-ROUTING FLOW OBSERVATIONS)
 VERSION 1.0, 10/15/98
 INPUT READ FROM UNIT  756
 #           CoverageGUID ObjectType ID X Y Time OBNAME
 #GMSCOMMENT 01d5ae3c-07cb-4c36-91b4-d9ccf6d35f85 ARC 10 337014.70346563 7390455.3186139 1.0 strf0
 #GMSCOMMENT 01d5ae3c-07cb-4c36-91b4-d9ccf6d35f85 ARC 12 338611.01684727 7387436.2780876 1.0 strf1
 #GMSCOMMENT 01d5ae3c-07cb-4c36-91b4-d9ccf6d35f85 ARC 14 338478.63018078 7387344.9894409 1.0 strf2
 #GMSCOMMENT 01d5ae3c-07cb-4c36-91b4-d9ccf6d35f85 ARC 15 338362.45827847 7387270.4722807 1.0 strf3
 #GMSCOMMENT 01d5ae3c-07cb-4c36-91b4-d9ccf6d35f85 ARC 3 337033.46294046 7389183.5954724 1.0 strf4
 #GMSCOMMENT 01d5ae3c-07cb-4c36-91b4-d9ccf6d35f85 ARC 4 337042.51619822 7389379.0078309 1.0 strf5
 #GMSCOMMENT 01d5ae3c-07cb-4c36-91b4-d9ccf6d35f85 ARC 5 337034.48989049 7389552.1689954 1.0 strf6
 #GMSCOMMENT 01d5ae3c-07cb-4c36-91b4-d9ccf6d35f85 ARC 6 337011.80084954 7389735.5181382 1.0 strf7
 #GMSCOMMENT 01d5ae3c-07cb-4c36-91b4-d9ccf6d35f85 ARC 7 336999.81828535 7389896.3181157 1.0 strf8
 #GMSCOMMENT 01d5ae3c-07cb-4c36-91b4-d9ccf6d35f85 ARC 8 336966.80441149 7390120.0707574 1.0 strf9
 #GMSCOMMENT 01d5ae3c-07cb-4c36-91b4-d9ccf6d35f85 ARC 9 336950.11744998 7390311.6831234 1.0 strf10

 NUMBER OF FLOW-OBSERVATION STREAM-REACH GROUPS...:     11
   NUMBER OF CELLS IN STREAM-REACH GROUPS.........:    129
   NUMBER OF STREAM-REACH FLOWS...................:     11

 OBS1BAS6F -- OBSERVATION PROCESS (CONSTANT-HEAD BOUNDARY FLOW OBSERVATIONS)
 VERSION 1.0, 12/03/99
 INPUT READ FROM UNIT 755
 #           CoverageGUID ObjectType ID X Y Time OBNAME
 #GMSCOMMENT bfaef822-4680-46cc-8b79-1589b805379d ARC 10 337576.27496381 7387238.4754052 1.0 chdf0
 #GMSCOMMENT bfaef822-4680-46cc-8b79-1589b805379d ARC 11 337582.72213485 7387355.2535621 1.0 chdf1
 #GMSCOMMENT bfaef822-4680-46cc-8b79-1589b805379d ARC 12 337589.47273902 7387516.5042366 1.0 chdf2
 #GMSCOMMENT bfaef822-4680-46cc-8b79-1589b805379d ARC 13 337592.29780477 7387663.5994195 1.0 chdf3
 #GMSCOMMENT bfaef822-4680-46cc-8b79-1589b805379d ARC 14 337597.25539369 7387808.9228033 1.0 chdf4
 #GMSCOMMENT bfaef822-4680-46cc-8b79-1589b805379d ARC 15 337580.21095527 7387940.6880006 1.0 chdf5
 #GMSCOMMENT bfaef822-4680-46cc-8b79-1589b805379d ARC 16 337510.08295493 7388067.9172147 1.0 chdf6
 #GMSCOMMENT bfaef822-4680-46cc-8b79-1589b805379d ARC 17 337416.57696953 7388184.9611652 1.0 chdf7
 #GMSCOMMENT bfaef822-4680-46cc-8b79-1589b805379d ARC 18 337315.52423867 7388318.4055082 1.0 chdf8
 #GMSCOMMENT bfaef822-4680-46cc-8b79-1589b805379d ARC 19 337239.45971085 7388491.39311 1.0 chdf9
 #GMSCOMMENT bfaef822-4680-46cc-8b79-1589b805379d ARC 20 337169.27220484 7388645.0683795 1.0 chdf10
 #GMSCOMMENT bfaef822-4680-46cc-8b79-1589b805379d ARC 21 337086.65315717 7388811.9367159 1.0 chdf11
 #GMSCOMMENT bfaef822-4680-46cc-8b79-1589b805379d ARC 22 337056.69315328 7388980.4387406 1.0 chdf12
 #GMSCOMMENT bfaef822-4680-46cc-8b79-1589b805379d ARC 3 338235.25612342 7387169.8146234 1.0 chdf13
 #GMSCOMMENT bfaef822-4680-46cc-8b79-1589b805379d ARC 4 338062.17305619 7387063.8601829 1.0 chdf14
 #GMSCOMMENT bfaef822-4680-46cc-8b79-1589b805379d ARC 5 337987.10739706 7386924.1116516 1.0 chdf15
 #GMSCOMMENT bfaef822-4680-46cc-8b79-1589b805379d ARC 6 337856.81146509 7386850.3144243 1.0 chdf16
 #GMSCOMMENT bfaef822-4680-46cc-8b79-1589b805379d ARC 7 337725.5501689 7386869.1116411 1.0 chdf17
 #GMSCOMMENT bfaef822-4680-46cc-8b79-1589b805379d ARC 8 337665.08171193 7386970.9785069 1.0 chdf18
 #GMSCOMMENT bfaef822-4680-46cc-8b79-1589b805379d ARC 9 337624.25782204 7387094.0976791 1.0 chdf19

 NUMBER OF FLOW-OBSERVATION CONSTANT-HEAD-CELL GROUPS:   20
   NUMBER OF CELLS IN CONSTANT-HEAD-CELL GROUPS......: 2257
   NUMBER OF CONSTANT-HEAD-CELL FLOWS................:   20

      75725 ELEMENTS IN X ARRAY ARE USED FOR OBSERVATIONS
       3422 ELEMENTS IN Z ARRAY ARE USED FOR OBSERVATIONS
       1039 ELEMENTS IN IX ARRAY ARE USED FOR OBSERVATIONS

 COMMON ERROR VARIANCE FOR ALL OBSERVATIONS SET TO:       1.000    

    2701057  ELEMENTS OF X ARRAY USED OUT OF    2701057
    1893422  ELEMENTS OF Z ARRAY USED OUT OF    1893422
       9051  ELEMENTS OF IX ARRAY USED OUT OF       9051
          0  ELEMENTS OF XHS ARRAY USED OUT OF          1

 INFORMATION ON PARAMETERS LISTED IN SEN FILE
                                         LOWER         UPPER       ALTERNATE
                        VALUE IN SEN   REASONABLE    REASONABLE     SCALING
    NAME     ISENS  LN   INPUT FILE      LIMIT         LIMIT         FACTOR
 ----------  -----  --  ------------  ------------  ------------  ------------
 HANI_101      1     1   0.49000       0.25000       0.98000        1.0000    
 HANI_102      1     1   0.45000       0.23000       0.90000        1.0000    
 HANI_103      1     1   0.33000       0.17000       0.66000        1.0000    
 HANI_104      1     1   0.50000       0.25000        1.0000        1.0000    
 HANI_105      1     1   0.64000       0.32000        1.2800        1.0000    
 VANI_111      1     1   0.65000       0.33000        1.3000        1.0000    
 VANI_112      1     1    1.5000       0.75000        3.0000        1.0000    
 VANI_113      1     1    1.8000       0.90000        3.6000        1.0000    
 VANI_114      1     1    5.4500        2.7300        10.900        1.0000    
 VANI_115      1     1    3.6300        1.8200        7.2600        1.0000    
 DRN_21        1     1    27.173        12.930        33.869        1.0000    
 DRN_22        1     1    28.559        13.392        35.255        1.0000    
 DRN_23        1     1    27.134        12.917        33.830        1.0000    
 DRN_24        1     1    27.229        12.948        33.925        1.0000    
 DRN_25        1     1    12.723        8.1129        19.419        1.0000    
 DRN_26        1     1    27.624        13.080        34.320        1.0000    
 DRN_27        1     1    12.647        8.0876        19.343        1.0000    
 DRN_28        1     1    11.408        7.6746        18.104        1.0000    
 DRN_29        1     1    12.783        8.1329        19.479        1.0000    
 DRN_30        1     1    12.825        8.1469        19.521        1.0000    
 DRN_31        1     1    12.739        8.1182        19.435        1.0000    
 DRN_32        1     1    16.594        9.4031        23.290        1.0000    
 DRN_33        1     1    12.655        8.0902        19.351        1.0000    
 DRN_34        1     1    19.127        10.248        25.823        1.0000    
 DRN_35        1     1    12.751        8.1222        19.447        1.0000    
 GHB_41        1     1   0.15936E-02   0.57152E-03   0.29827E-02    1.0000    
 GHB_42        1     1   0.15936E-02   0.57155E-03   0.29827E-02    1.0000    
 GHB_43        1     1   0.14430E-02   0.52135E-03   0.29074E-02    1.0000    
 GHB_44        1     1   0.10913E-02   0.40411E-03   0.27315E-02    1.0000    
 GHB_45        1     1   0.85536E-03   0.32546E-03   0.26136E-02    1.0000    
 GHB_46        1     1   0.38320E-02   0.13177E-02   0.41019E-02    1.0000    
 GHB_47        1     1   0.17495E-02   0.62349E-03   0.30606E-02    1.0000    
 GHB_48        1     1   0.36103E-02   0.12438E-02   0.39911E-02    1.0000    
 GHB_49        1     1   0.28662E-02   0.99574E-03   0.36190E-02    1.0000    
 GHB_50        1     1   0.34012E-02   0.11741E-02   0.38865E-02    1.0000    
 GHB_51        1     1   0.73484E-03   0.28528E-03   0.25533E-02    1.0000    
 STR_61        1     0    14.434        12.563        16.601        1.0000    
 STR_62        1     0    15.581        12.849        17.174        1.0000    
 STR_71        1     0    14.439        12.508        16.490        1.0000    
 STR_70        1     0    14.294        12.446        16.367        1.0000    
 STR_69        1     0    14.019        12.452        16.380        1.0000    
 STR_63        1     0    14.213        12.496        16.467        1.0000    
 STR_64        1     0    13.968        12.496        16.466        1.0000    
 STR_65        1     0    13.993        12.521        16.516        1.0000    
 STR_66        1     0    14.167        12.459        16.393        1.0000    
 STR_67        1     0    14.166        12.528        16.530        1.0000    
 STR_68        1     0    14.265        12.564        16.603        1.0000    
 sc1v1         1     1   0.30222E-02   0.14273E-02   0.70266E-02    1.0000    
 sc1v2         1     1   0.52203E-02   0.14273E-02   0.70266E-02    1.0000    
 sc1v3         1     1   0.22958E-02   0.14273E-02   0.70266E-02    1.0000    
 sc1v4         1     1   0.15397E-02   0.14273E-02   0.70266E-02    1.0000    
 sc1v5         1     1   0.35278E-02   0.14273E-02   0.70266E-02    1.0000    
 sc1v6         1     1   0.52203E-02   0.14273E-02   0.70266E-02    1.0000    
 sc1v7         1     1   0.21594E-02   0.14273E-02   0.70266E-02    1.0000    
 sc1v8         1     1   0.52203E-02   0.14273E-02   0.70266E-02    1.0000    
 sc1v9         1     1   0.52204E-02   0.14273E-02   0.70266E-02    1.0000    
 sc1v10        1     1   0.52203E-02   0.14273E-02   0.70266E-02    1.0000    
 sc1v11        1     1   0.27619E-02   0.14273E-02   0.70266E-02    1.0000    
 sc2v1         1     1   0.26651E-01   0.25538E-02   0.34176E-01    1.0000    
 sc2v2         1     1   0.26651E-01   0.25538E-02   0.34176E-01    1.0000    
 sc2v3         1     1   0.26651E-01   0.25538E-02   0.34176E-01    1.0000    
 sc2v4         1     1   0.26651E-01   0.25538E-02   0.34176E-01    1.0000    
 sc2v5         1     1   0.16196E-01   0.25538E-02   0.34176E-01    1.0000    
 sc2v6         1     1   0.26651E-01   0.25538E-02   0.34176E-01    1.0000    
 sc2v7         1     1   0.25788E-02   0.25538E-02   0.34176E-01    1.0000    
 sc2v8         1     1   0.42223E-02   0.25538E-02   0.34176E-01    1.0000    
 sc2v9         1     1   0.10425E-01   0.25538E-02   0.34176E-01    1.0000    
 sc2v10        1     1   0.26651E-01   0.25538E-02   0.34176E-01    1.0000    
 sc2v11        1     1   0.26651E-01   0.25538E-02   0.34176E-01    1.0000    
 sc3v1         1     1   0.25051       0.27182E-01   0.46153        1.0000    
 sc3v2         1     1   0.36970       0.27182E-01   0.46153        1.0000    
 sc3v3         1     1   0.38102E-01   0.27182E-01   0.46153        1.0000    
 sc3v4         1     1   0.23703       0.27182E-01   0.46153        1.0000    
 sc3v5         1     1   0.17442       0.27182E-01   0.46153        1.0000    