pcf
* control data
restart regularisation
     12    466      1      0      7  
    1    2 double point  1    0  0
   10.000        2.0000      0.3  0.03  10
      0.100  10.0  0.001
 0.1
9 0.005  4  4  0.005  4
1  1  1  1 nojcosaveitn noreisaveitn
* singular value decomposition
     1
    12  1.0000000E-07
     0
* svd assist
A.pst
A.jco
    0    3    0    1    0
* parameter groups
 pargp absolute    0.015  0.0  switch    2.0 parabolic
* parameter data
par1         none  relative   1.0000     1.0e-20  1.0e20  pargp  1.0  -1.0000      1
par2         none  relative   1.0000     1.0e-20  1.0e20  pargp  1.0  -1.0000      1
par3         none  relative   1.0000     1.0e-20  1.0e20  pargp  1.0  -1.0000      1
par4         none  relative   1.0000     1.0e-20  1.0e20  pargp  1.0  -1.0000      1
par5         none  relative   1.0000     1.0e-20  1.0e20  pargp  1.0  -1.0000      1
par6         none  relative   1.0000     1.0e-20  1.0e20  pargp  1.0  -1.0000      1
par7         none  relative   1.0000     1.0e-20  1.0e20  pargp  1.0  -1.0000      1
par8         none  relative   1.0000     1.0e-20  1.0e20  pargp  1.0  -1.0000      1
par9         none  relative   1.0000     1.0e-20  1.0e20  pargp  1.0  -1.0000      1
par10        none  relative   1.0000     1.0e-20  1.0e20  pargp  1.0  -1.0000      1
par11        none  relative   1.0000     1.0e-20  1.0e20  pargp  1.0  -1.0000      1
par12        none  relative   1.0000     1.0e-20  1.0e20  pargp  1.0  -1.0000      1
* observation groups
 head
 drain
 ghb
 stream
 const_head
 regul_1
 regul_2
* observation data
 hed1           741.370        1.27599      head
 hed2           738.130       1.437083E-02  head
 hed3           738.310       0.348390      head
 hed4           739.500       0.794231      head
 hed5           739.700       0.881964      head
 hed6           739.420       0.758866      head
 hed7           738.950       0.569538      head
 hed8           738.720       0.478333      head
 hed9           739.480       0.776448      head
 hed10          739.900       0.955236      head
 hed11          738.880       0.540718      head
 hed12          739.700       0.881964      head
 hed13          739.760       0.896475      head
 hed14          738.910       0.553657      head
 hed15          740.090        1.05455      head
 hed16          740.150        1.07114      head
 hed17          739.500       0.794231      head
 hed18          740.230        1.09350      head
 hed19          740.370        1.15777      head
 hed20          739.340       0.710903      head
 hed21          739.200       0.663971      head
 hed22          740.050        1.03295      head
 hed23          740.080        1.03295      head
 hed24          740.700        1.24670      head
 hed25          739.360       0.728022      head
 hed26          742.000        1.05759      head
 hed27          740.330        1.13398      head
 hed28          740.970        1.28856      head
 hed29          740.800        1.26731      head
 hed30          740.620        1.22055      head
 hed31          740.710        1.24670      head
 hed32          739.860       0.955236      head
 hed33          739.660       0.863120      head
 hed34          740.490        1.20111      head
 hed35          741.810        1.13099      head
 hed36          741.160        1.28224      head
 hed37          741.810        1.13099      head
 hed38          742.000        1.05759      head
 hed39          741.060        1.28856      head
 hed40          742.200       0.969009      head
 hed41          741.470        1.24270      head
 hed42          743.810       0.336091      head
 hed43          742.400       0.887328      head
 hed44          742.420       0.868852      head
 hed45          744.010       0.283427      head
 hed46          742.310       0.929605      head
 hed47          741.750        1.16049      head
 hed48          743.230       0.532018      head
 hed49          743.270       0.517765      head
 hed50          742.480       0.850663      head
 hed51          743.040       0.607873      head
 hed52          743.520       0.432345      head
 hed53          742.930       0.641141      head
 hed54          743.990       0.283427      head
 hed55          743.930       0.308887      head
 hed56          746.080       1.152144E-02  head
 hed57          744.990       0.106670      head
 hed58          744.860       0.119108      head
 drnf0         -123.680       1.112814E-03  drain
 drnf1         -41.0500       8.081901E-04  drain
 drnf2         -26.3800       1.400699E-05  drain
 drnf3         -53.2400       9.414005E-04  drain
 drnf4         -96.9200       1.226220E-03  drain
 drnf5         -131.550       1.059211E-03  drain
 drnf6         -332.640       2.732595E-05  drain
 drnf7         -59.7000       1.014454E-03  drain
 drnf8         -28.5300       6.871663E-04  drain
 drnf9         -80.2400       1.166290E-03  drain
 drnf10        -117.550       1.171866E-03  drain
 drnf11        -71.3800       1.101830E-03  drain
 drnf12        -93.8700       1.219545E-03  drain
 drnf13        -40.3200       8.072408E-04  drain
 drnf14        -74.5100       1.131105E-03  drain
 ghbf0         -59.7100       4.436107E-03  ghb
 ghbf1         -44.4700       5.456051E-03  ghb
 ghbf2         -55.6500       4.974528E-03  ghb
 ghbf3         -10.4900       5.906037E-05  ghb
 ghbf4         -43.7300       5.445073E-03  ghb
 ghbf5         -52.9600       5.252200E-03  ghb
 ghbf6         -50.7900       5.440190E-03  ghb
 ghbf7         -33.4800       4.211280E-03  ghb
 ghbf8         -25.5800       3.002492E-03  ghb
 ghbf9         -99.1300       7.618542E-05  ghb
 ghbf10        -30.9100       3.837599E-03  ghb
 strf0          167.500       4.376525E-03  stream
 strf1          196.860       1.582127E-03  stream
 strf2          152.880       3.262372E-03  stream
 strf3          211.890       3.174388E-05  stream
 strf4          164.050       4.349153E-03  stream
 strf5          183.070       2.814332E-03  stream
 strf6          160.930       4.166181E-03  stream
 strf7          131.440       1.239962E-03  stream
 strf8          131.380       1.239829E-03  stream
 strf9          190.880       2.045977E-03  stream
 strf10         128.650       2.722987E-05  stream
 chdf0          53.8700       6.367278E-03  const_head
 chdf1          87.3500       1.056871E-04  const_head
 chdf2          51.1300       6.699317E-03  const_head
 chdf3          59.6500       5.731838E-03  const_head
 chdf4          58.2200       5.886650E-03  const_head
 chdf5          28.1300       9.274455E-03  const_head
 chdf6          43.0200       7.761586E-03  const_head
 chdf7          35.5700       8.576209E-03  const_head
 chdf8          35.0100       8.585693E-03  const_head
 chdf9          19.3800       9.853880E-03  const_head
 chdf10         7.70000       1.011685E-02  const_head
 chdf11        1.000000E-02   1.008599E-02  const_head
 chdf12        -48.3000       5.343162E-03  const_head
 chdf13        -158.290       2.009567E-04  const_head
 chdf14        -69.5800       3.221578E-03  const_head
 chdf15        -18.3900       8.728865E-03  const_head
 chdf16       -0.890000       9.899948E-03  const_head
 chdf17         14.5100       1.016949E-02  const_head
 chdf18         22.8100       9.778745E-03  const_head
 chdf19         40.8200       7.964663E-03  const_head
 pi0    0.000000       3.4726494E-02  regul_1
 pi1    0.000000       1.2079846E-02  regul_1
 pi2    0.000000       1.6495544E-02  regul_1
 pi3    0.000000       1.7489069E-03  regul_1
 pi4    0.000000       2.7405520E-04  regul_1
 pi5    0.000000       1.0836724E-05  regul_1
 pi6    0.000000       2.1173628E-05  regul_1
 pi7    0.000000       7.3130944E-04  regul_1
 pi8    0.000000       3.8502365E-03  regul_1
 pi9    0.000000       3.5863321E-02  regul_1
 pi10    0.000000       0.1214735      regul_1
 pi11    0.000000       1.3880896E-02  regul_1
 pi12    0.000000       1.3113703E-03  regul_1
 pi13    0.000000       1.5153967E-04  regul_1
 pi14    0.000000       5.8259916E-09  regul_1
 pi15    0.000000       1.4627362E-08  regul_1
 pi16    0.000000       2.3256782E-04  regul_1
 pi17    0.000000       1.1311589E-03  regul_1
 pi18    0.000000       6.5267961E-03  regul_1
 pi19    0.000000       1.3964869E-02  regul_1
 pi20    0.000000       1.5476228E-03  regul_1
 pi21    0.000000       1.8425799E-04  regul_1
 pi22    0.000000       3.9526066E-07  regul_1
 pi23    0.000000        0.000000      regul_1
 pi24    0.000000       1.7401964E-04  regul_1
 pi25    0.000000       7.4381766E-04  regul_1
 pi26    0.000000       3.6941109E-03  regul_1
 pi27    0.000000       1.2014595E-02  regul_1
 pi28    0.000000       1.5936296E-03  regul_1
 pi29    0.000000       2.2103830E-04  regul_1
 pi30    0.000000       2.1046274E-04  regul_1
 pi31    0.000000       1.7084206E-03  regul_1
 pi32    0.000000       4.8446278E-03  regul_1
 pi33    0.000000       1.8142157E-02  regul_1
 pi34    0.000000       1.7439479E-02  regul_1
 pi35    0.000000       2.1907670E-03  regul_1
 pi36    0.000000       1.7189375E-03  regul_1
 pi37    0.000000       5.5479487E-03  regul_1
 pi38    0.000000       4.6968382E-03  regul_1
 pi39    0.000000       3.8635411E-03  regul_1
 pi40    0.000000       1.9022705E-02  regul_1
 pi41    0.000000       1.0435611E-02  regul_1
 pi42    0.000000       7.8758263E-03  regul_1
 pi43    0.000000       2.1879024E-03  regul_1
 pi44    0.000000       8.7879202E-04  regul_1
 pi45    0.000000       5.6942927E-02  regul_1
 pi46    0.000000       3.6202824E-03  regul_1
 pi47    0.000000       6.4940076E-04  regul_1
 pi48    0.000000       1.4100283E-04  regul_1
 pi49    0.000000       7.6314802E-03  regul_1
 pi50    0.000000       1.1606252E-03  regul_1
 pi51    0.000000       2.2225340E-04  regul_1
 pi52    0.000000       1.9724186E-02  regul_1
 pi53    0.000000       3.0174597E-03  regul_1
 pi54    0.000000       2.1478467E-02  regul_1
 pi55    0.000000       3.4726494E-02  regul_1
 pi56    0.000000       1.2079846E-02  regul_1
 pi57    0.000000       1.6495544E-02  regul_1
 pi58    0.000000       1.7489069E-03  regul_1
 pi59    0.000000       2.7405520E-04  regul_1
 pi60    0.000000       1.0836724E-05  regul_1
 pi61    0.000000       2.1173628E-05  regul_1
 pi62    0.000000       7.3130944E-04  regul_1
 pi63    0.000000       3.8502365E-03  regul_1
 pi64    0.000000       3.5863321E-02  regul_1
 pi65    0.000000       0.1214735      regul_1
 pi66    0.000000       1.3880896E-02  regul_1
 pi67    0.000000       1.3113703E-03  regul_1
 pi68    0.000000       1.5153967E-04  regul_1
 pi69    0.000000       5.8259916E-09  regul_1
 pi70    0.000000       1.4627362E-08  regul_1
 pi71    0.000000       2.3256782E-04  regul_1
 pi72    0.000000       1.1311589E-03  regul_1
 pi73    0.000000       6.5267961E-03  regul_1
 pi74    0.000000       1.3964869E-02  regul_1
 pi75    0.000000       1.5476228E-03  regul_1
 pi76    0.000000       1.8425799E-04  regul_1
 pi77    0.000000       3.9526066E-07  regul_1
 pi78    0.000000        0.000000      regul_1
 pi79    0.000000       1.7401964E-04  regul_1
 pi80    0.000000       7.4381766E-04  regul_1
 pi81    0.000000       3.6941109E-03  regul_1
 pi82    0.000000       1.2014595E-02  regul_1
 pi83    0.000000       1.5936296E-03  regul_1
 pi84    0.000000       2.2103830E-04  regul_1
 pi85    0.000000       2.1046274E-04  regul_1
 pi86    0.000000       1.7084206E-03  regul_1
 pi87    0.000000       4.8446278E-03  regul_1
 pi88    0.000000       1.8142157E-02  regul_1
 pi89    0.000000       1.7439479E-02  regul_1
 pi90    0.000000       2.1907670E-03  regul_1
 pi91    0.000000       1.7189375E-03  regul_1
 pi92    0.000000       5.5479487E-03  regul_1
 pi93    0.000000       4.6968382E-03  regul_1
 pi94    0.000000       3.8635411E-03  regul_1
 pi95    0.000000       1.9022705E-02  regul_1
 pi96    0.000000       1.0435611E-02  regul_1
 pi97    0.000000       7.8758263E-03  regul_1
 pi98    0.000000       2.1879024E-03  regul_1
 pi99    0.000000       8.7879202E-04  regul_1
 pi100    0.000000       5.6942927E-02  regul_1
 pi101    0.000000       3.6202824E-03  regul_1
 pi102    0.000000       6.4940076E-04  regul_1
 pi103    0.000000       1.4100283E-04  regul_1
 pi104    0.000000       7.6314802E-03  regul_1
 pi105    0.000000       1.1606252E-03  regul_1
 pi106    0.000000       2.2225340E-04  regul_1
 pi107    0.000000       1.9724186E-02  regul_1
 pi108    0.000000       3.0174597E-03  regul_1
 pi109    0.000000       2.1478467E-02  regul_1
 pi110    0.000000       3.4726495E-02  regul_1
 pi111    0.000000       1.2079846E-02  regul_1
 pi112    0.000000       1.6495544E-02  regul_1
 pi113    0.000000       1.7489069E-03  regul_1
 pi114    0.000000       2.7405521E-04  regul_1
 pi115    0.000000       1.0836724E-05  regul_1
 pi116    0.000000       2.1173628E-05  regul_1
 pi117    0.000000       7.3130944E-04  regul_1
 pi118    0.000000       3.8502365E-03  regul_1
 pi119    0.000000       3.5863321E-02  regul_1
 pi120    0.000000       0.1214735      regul_1
 pi121    0.000000       1.3880896E-02  regul_1
 pi122    0.000000       1.3113703E-03  regul_1
 pi123    0.000000       1.5153967E-04  regul_1
 pi124    0.000000       5.8259910E-09  regul_1
 pi125    0.000000       1.4627362E-08  regul_1
 pi126    0.000000       2.3256782E-04  regul_1
 pi127    0.000000       1.1311589E-03  regul_1
 pi128    0.000000       6.5267962E-03  regul_1
 pi129    0.000000       1.3964869E-02  regul_1
 pi130    0.000000       1.5476229E-03  regul_1
 pi131    0.000000       1.8425799E-04  regul_1
 pi132    0.000000       3.9526066E-07  regul_1
 pi133    0.000000        0.000000      regul_1
 pi134    0.000000       1.7401964E-04  regul_1
 pi135    0.000000       7.4381766E-04  regul_1
 pi136    0.000000       3.6941109E-03  regul_1
 pi137    0.000000       1.2014595E-02  regul_1
 pi138    0.000000       1.5936296E-03  regul_1
 pi139    0.000000       2.2103830E-04  regul_1
 pi140    0.000000       2.1046274E-04  regul_1
 pi141    0.000000       1.7084205E-03  regul_1
 pi142    0.000000       4.8446277E-03  regul_1
 pi143    0.000000       1.8142157E-02  regul_1
 pi144    0.000000       1.7439479E-02  regul_1
 pi145    0.000000       2.1907669E-03  regul_1
 pi146    0.000000       1.7189375E-03  regul_1
 pi147    0.000000       5.5479482E-03  regul_1
 pi148    0.000000       4.6968380E-03  regul_1
 pi149    0.000000       3.8635411E-03  regul_1
 pi150    0.000000       1.9022705E-02  regul_1
 pi151    0.000000       1.0435611E-02  regul_1
 pi152    0.000000       7.8758259E-03  regul_1
 pi153    0.000000       2.1879025E-03  regul_1
 pi154    0.000000       8.7879203E-04  regul_1
 pi155    0.000000       5.6942927E-02  regul_1
 pi156    0.000000       3.6202823E-03  regul_1
 pi157    0.000000       6.4940077E-04  regul_1
 pi158    0.000000       1.4100283E-04  regul_1
 pi159    0.000000       7.6314800E-03  regul_1
 pi160    0.000000       1.1606252E-03  regul_1
 pi161    0.000000       2.2225340E-04  regul_1
 pi162    0.000000       1.9724186E-02  regul_1
 pi163    0.000000       3.0174596E-03  regul_1
 pi164    0.000000       2.1478467E-02  regul_1
 pi165    0.000000       3.4726474E-02  regul_1
 pi166    0.000000       1.2079845E-02  regul_1
 pi167    0.000000       1.6495542E-02  regul_1
 pi168    0.000000       1.7489072E-03  regul_1
 pi169    0.000000       2.7405526E-04  regul_1
 pi170    0.000000       1.0836728E-05  regul_1
 pi171    0.000000       2.1173635E-05  regul_1
 pi172    0.000000       7.3130959E-04  regul_1
 pi173    0.000000       3.8502372E-03  regul_1
 pi174    0.000000       3.5863322E-02  regul_1
 pi175    0.000000       0.1214735      regul_1
 pi176    0.000000       1.3880898E-02  regul_1
 pi177    0.000000       1.3113704E-03  regul_1
 pi178    0.000000       1.5153968E-04  regul_1
 pi179    0.000000       5.8259903E-09  regul_1
 pi180    0.000000       1.4627300E-08  regul_1
 pi181    0.000000       2.3256783E-04  regul_1
 pi182    0.000000       1.1311590E-03  regul_1
 pi183    0.000000       6.5267936E-03  regul_1
 pi184    0.000000       1.3964872E-02  regul_1
 pi185    0.000000       1.5476231E-03  regul_1
 pi186    0.000000       1.8425802E-04  regul_1
 pi187    0.000000       3.9526095E-07  regul_1
 pi188    0.000000        0.000000      regul_1
 pi189    0.000000       1.7401966E-04  regul_1
 pi190    0.000000       7.4381777E-04  regul_1
 pi191    0.000000       3.6941105E-03  regul_1
 pi192    0.000000       1.2014595E-02  regul_1
 pi193    0.000000       1.5936298E-03  regul_1
 pi194    0.000000       2.2103833E-04  regul_1
 pi195    0.000000       2.1046275E-04  regul_1
 pi196    0.000000       1.7084206E-03  regul_1
 pi197    0.000000       4.8446281E-03  regul_1
 pi198    0.000000       1.8142146E-02  regul_1
 pi199    0.000000       1.7439482E-02  regul_1
 pi200    0.000000       2.1907674E-03  regul_1
 pi201    0.000000       1.7189378E-03  regul_1
 pi202    0.000000       5.5479496E-03  regul_1
 pi203    0.000000       4.6968390E-03  regul_1
 pi204    0.000000       3.8635416E-03  regul_1
 pi205    0.000000       1.9022708E-02  regul_1
 pi206    0.000000       1.0435613E-02  regul_1
 pi207    0.000000       7.8758275E-03  regul_1
 pi208    0.000000       2.1879029E-03  regul_1
 pi209    0.000000       8.7879215E-04  regul_1
 pi210    0.000000       5.6942933E-02  regul_1
 pi211    0.000000       3.6202830E-03  regul_1
 pi212    0.000000       6.4940090E-04  regul_1
 pi213    0.000000       1.4100286E-04  regul_1
 pi214    0.000000       7.6314816E-03  regul_1
 pi215    0.000000       1.1606254E-03  regul_1
 pi216    0.000000       2.2225345E-04  regul_1
 pi217    0.000000       1.9724189E-02  regul_1
 pi218    0.000000       3.0174602E-03  regul_1
 pi219    0.000000       2.1478468E-02  regul_1
 pi220    0.000000       3.4726494E-02  regul_1
 pi221    0.000000       1.2079846E-02  regul_1
 pi222    0.000000       1.6495544E-02  regul_1
 pi223    0.000000       1.7489069E-03  regul_1
 pi224    0.000000       2.7405520E-04  regul_1
 pi225    0.000000       1.0836724E-05  regul_1
 pi226    0.000000       2.1173628E-05  regul_1
 pi227    0.000000       7.3130944E-04  regul_1
 pi228    0.000000       3.8502365E-03  regul_1
 pi229    0.000000       3.5863321E-02  regul_1
 pi230    0.000000       0.1214735      regul_1
 pi231    0.000000       1.3880896E-02  regul_1
 pi232    0.000000       1.3113703E-03  regul_1
 pi233    0.000000       1.5153967E-04  regul_1
 pi234    0.000000       5.8259916E-09  regul_1
 pi235    0.000000       1.4627362E-08  regul_1
 pi236    0.000000       2.3256782E-04  regul_1
 pi237    0.000000       1.1311589E-03  regul_1
 pi238    0.000000       6.5267961E-03  regul_1
 pi239    0.000000       1.3964869E-02  regul_1
 pi240    0.000000       1.5476229E-03  regul_1
 pi241    0.000000       1.8425799E-04  regul_1
 pi242    0.000000       3.9526066E-07  regul_1
 pi243    0.000000        0.000000      regul_1
 pi244    0.000000       1.7401964E-04  regul_1
 pi245    0.000000       7.4381766E-04  regul_1
 pi246    0.000000       3.6941109E-03  regul_1
 pi247    0.000000       1.2014595E-02  regul_1
 pi248    0.000000       1.5936296E-03  regul_1
 pi249    0.000000       2.2103830E-04  regul_1
 pi250    0.000000       2.1046274E-04  regul_1
 pi251    0.000000       1.7084206E-03  regul_1
 pi252    0.000000       4.8446278E-03  regul_1
 pi253    0.000000       1.8142157E-02  regul_1
 pi254    0.000000       1.7439479E-02  regul_1
 pi255    0.000000       2.1907670E-03  regul_1
 pi256    0.000000       1.7189375E-03  regul_1
 pi257    0.000000       5.5479487E-03  regul_1
 pi258    0.000000       4.6968382E-03  regul_1
 pi259    0.000000       3.8635411E-03  regul_1
 pi260    0.000000       1.9022705E-02  regul_1
 pi261    0.000000       1.0435611E-02  regul_1
 pi262    0.000000       7.8758263E-03  regul_1
 pi263    0.000000       2.1879024E-03  regul_1
 pi264    0.000000       8.7879202E-04  regul_1
 pi265    0.000000       5.6942927E-02  regul_1
 pi266    0.000000       3.6202824E-03  regul_1
 pi267    0.000000       6.4940076E-04  regul_1
 pi268    0.000000       1.4100283E-04  regul_1
 pi269    0.000000       7.6314802E-03  regul_1
 pi270    0.000000       1.1606252E-03  regul_1
 pi271    0.000000       2.2225340E-04  regul_1
 pi272    0.000000       1.9724186E-02  regul_1
 pi273    0.000000       3.0174597E-03  regul_1
 pi274    0.000000       2.1478467E-02  regul_1
 pi275    0.000000       6.2171346E-02  regul_2
 pi276    0.000000       4.6404820E-03  regul_2
 pi277    0.000000       5.4032442E-02  regul_2
 pi278    0.000000       3.3491336E-03  regul_2
 pi279    0.000000        0.000000      regul_2
 pi280    0.000000       4.9595796E-02  regul_2
 pi281    0.000000       0.1436755      regul_2
 pi282    0.000000       3.7529513E-02  regul_2
 pi283    0.000000       2.3063958E-03  regul_2
 pi284    0.000000       1.0422347E-02  regul_2
 pi285    0.000000       5.8753365E-02  regul_2
 pi286    0.000000       3.0046939E-02  regul_2
 pi287    0.000000       2.6405554E-02  regul_2
 pi288    0.000000       4.7849105E-04  regul_2
 pi289    0.000000       1.6592721E-02  regul_2
 pi290   -5.801815        1.000000      regul_1
 pi291   -5.255216        1.000000      regul_1
 pi292   -6.076738        1.000000      regul_1
 pi293   -6.476247        1.000000      regul_1
 pi294   -5.647116        1.000000      regul_1
 pi295   -5.255216        1.000000      regul_1
 pi296   -6.137952        1.000000      regul_1
 pi297   -5.255216        1.000000      regul_1
 pi298   -5.255216        1.000000      regul_1
 pi299   -5.255216        1.000000      regul_1
 pi300   -5.891879        1.000000      regul_1
 pi301   -3.624928        1.000000      regul_1
 pi302   -3.624928        1.000000      regul_1
 pi303   -3.624928        1.000000      regul_1
 pi304   -3.624928        1.000000      regul_1
 pi305   -4.122986        1.000000      regul_1
 pi306   -3.624928        1.000000      regul_1
 pi307   -5.960454        1.000000      regul_1
 pi308   -5.467407        1.000000      regul_1
 pi309   -4.563524        1.000000      regul_1
 pi310   -3.624928        1.000000      regul_1
 pi311   -3.624928        1.000000      regul_1
 pi312   -1.384274        1.000000      regul_1
 pi313  -0.9950634        1.000000      regul_1
 pi314   -3.267488        1.000000      regul_1
 pi315   -1.439548        1.000000      regul_1
 pi316   -1.746301        1.000000      regul_1
 pi317   -3.267488        1.000000      regul_1
 pi318   -1.769352        1.000000      regul_1
 pi319  -0.9950634        1.000000      regul_1
 pi320  -0.9950634        1.000000      regul_1
 pi321  -0.9950634        1.000000      regul_1
 pi322   -2.353887        1.000000      regul_1
 pi323    1.386962        1.000000      regul_1
 pi324   0.8486684        1.000000      regul_1
 pi325   0.9837081        1.000000      regul_1
 pi326    1.011080        1.000000      regul_1
 pi327    1.334106        1.000000      regul_1
 pi328    1.249934        1.000000      regul_1
 pi329    1.316318        1.000000      regul_1
 pi330    1.414493        1.000000      regul_1
 pi331    1.386404        1.000000      regul_1
 pi332    1.262395        1.000000      regul_1
 pi333    1.455924        1.000000      regul_1
 pi334   0.1931059        1.000000      regul_1
 pi335   0.1299021        1.000000      regul_1
 pi336   0.1583590        1.000000      regul_1
 pi337   0.1329386        1.000000      regul_1
 pi338   0.1397996        1.000000      regul_1
 pi339   0.1566332        1.000000      regul_1
 pi340   0.1613929        1.000000      regul_1
 pi341   0.1580824        1.000000      regul_1
 pi342   0.1730069        1.000000      regul_1
 pi343   0.1788941        1.000000      regul_1
 pi344   0.1569064        1.000000      regul_1
 pi345   -9.561288        1.000000      regul_2
 pi346   -9.208642        1.000000      regul_2
 pi347   -9.208642        1.000000      regul_2
 pi348   -9.208642        1.000000      regul_2
 pi349   -9.208642        1.000000      regul_2
 pi350   -9.208642        1.000000      regul_2
* model command line
svdabatch.bat
* model input/output
parcalc.tpl   parcalc.in
 A.ins A._os
picalc.ins   picalc.out
* regularisation
   10.000       11.000      0.10000
  0.10000      1.00000E-06  1.00000E+06
   1.3000      1.00000E-02
