pcf
* control data
restart regularisation
      8   1424      1      0      5  
    1    2 double point  1    0  0
  1.00000E-02   -3.0000      0.3  0.03  10
      0.100  10.0  0.001
 0.1
12 0.005  4  4  0.005  4
1  1  1  1 nojcosaveitn noreisaveitn
* singular value decomposition
     1
     8  1.0000000E-07
     0
* svd assist
A.pst
A.jco
    0    3    0    1    0
* parameter groups
 pargp absolute    0.015  0.0  switch    2.0 parabolic
* parameter data
par1         none  relative   10.000     1.0e-20  1.0e20  pargp  1.0  -10.000      1
par2         none  relative   10.000     1.0e-20  1.0e20  pargp  1.0  -10.000      1
par3         none  relative   10.000     1.0e-20  1.0e20  pargp  1.0  -10.000      1
par4         none  relative   10.000     1.0e-20  1.0e20  pargp  1.0  -10.000      1
par5         none  relative   10.000     1.0e-20  1.0e20  pargp  1.0  -10.000      1
par6         none  relative   10.000     1.0e-20  1.0e20  pargp  1.0  -10.000      1
par7         none  relative   10.000     1.0e-20  1.0e20  pargp  1.0  -10.000      1
par8         none  relative   10.000     1.0e-20  1.0e20  pargp  1.0  -10.000      1
* observation groups
 head
 drain
 const_head
 regul_1
 regul_2
* observation data
 hed1           23.0000        1.30142      head
 hed2           19.9000        1.26586      head
 hed3           23.6000        1.30142      head
 hed4           18.4000        1.16070      head
 hed5           17.6000        1.26586      head
 hed6           17.5000        1.26586      head
 hed7           16.1000        1.30142      head
 hed8           22.4000        1.02362      head
 hed9           20.2000        1.02362      head
 hed10          14.3000       0.437711      head
 hed11          17.2000        1.26586      head
 hed12          14.5000       0.437711      head
 hed13          22.4000       3.110459E-02  head
 dr0           -84.4654       1.528537E-03  drain
 dr1           -56.3320       1.485914E-03  drain
 dr2           -53.1145       1.443590E-03  drain
 dr3           -80.5502       1.528537E-03  drain
 dr4           -6.53438       6.818837E-04  drain
 dr5           -27.7912       1.074193E-03  drain
 dr6           -108.558       1.236028E-03  drain
 dr7           -75.5271       1.571470E-03  drain
 dr8           -74.2105       1.571470E-03  drain
 dr9           -92.2546       1.443590E-03  drain
 dr10          -73.4584       1.571470E-03  drain
 dr11          -49.7375       1.401552E-03  drain
 dr12          -50.3185       1.401552E-03  drain
 dr13          -54.8774       1.485914E-03  drain
 dr14          -26.0743       1.034237E-03  drain
 dr15          -39.4533       1.277037E-03  drain
 dr16          -26.3665       1.034237E-03  drain
 dr17          -33.0751       1.154689E-03  drain
 dr18          -117.928       1.074193E-03  drain
 dr19          -108.980       1.195248E-03  drain
 dr20          -89.5043       1.485914E-03  drain
 dr21          -66.7297       1.571470E-03  drain
 dr22          -44.8998       1.359789E-03  drain
 dr23          -72.4675       1.571470E-03  drain
 dr24          -55.5642       1.485914E-03  drain
 dr25          -57.1908       1.485914E-03  drain
 dr26          -78.9101       1.571470E-03  drain
 dr27          -48.4001       1.401552E-03  drain
 dr28          -36.0125       1.195248E-03  drain
 dr29          -54.1655       1.443590E-03  drain
 dr30          -50.4447       1.401552E-03  drain
 dr31          -75.9608       1.571470E-03  drain
 dr32          -59.8589       1.528537E-03  drain
 dr33          -168.717       2.632446E-04  drain
 dr34          -17.0166       8.761595E-04  drain
 dr35          -22.5608       9.548662E-04  drain
 dr36          -50.2076       1.401552E-03  drain
 dr37          -297.820       3.755905E-05  drain
 dr38          -190.749       1.127007E-04  drain
 dr39          -137.534       7.204844E-04  drain
 ch0           -50.4447       9.910472E-04  const_head
 ch1           -22.5608       6.751924E-04  const_head
 ch2           -50.2076       9.910472E-04  const_head
 ch3           -297.820       2.655826E-05  const_head
 ch4           -912.812       1.674734E-03  const_head
 ch5           -882.550       1.731872E-03  const_head
 ch6           -1017.78       1.227639E-03  const_head
 ch7           -728.659       2.022701E-03  const_head
 ch8           -685.195       2.082003E-03  const_head
 ch9           -50.4447       6.871780E-04  const_head
 ch10          -22.5608       5.807191E-04  const_head
 pi0    0.000000       6.5887679E-03  regul_1
 pi1    0.000000       1.1868672E-03  regul_1
 pi2    0.000000       3.5636038E-04  regul_1
 pi3    0.000000       6.5887682E-03  regul_1
 pi4    0.000000       2.8947753E-03  regul_1
 pi5    0.000000       8.7134463E-04  regul_1
 pi6    0.000000       2.9856923E-04  regul_1
 pi7    0.000000       1.1868672E-03  regul_1
 pi8    0.000000       4.3126346E-04  regul_1
 pi9    0.000000       1.8622435E-04  regul_1
 pi10    0.000000       3.5636038E-04  regul_1
 pi11    0.000000       1.8622435E-04  regul_1
 pi12    0.000000       9.5156247E-05  regul_1
 pi13    0.000000       1.2300574E-04  regul_1
 pi14    0.000000       1.0802110E-04  regul_1
 pi15    0.000000       7.4383713E-05  regul_1
 pi16    0.000000       4.1200563E-05  regul_1
 pi17    0.000000       4.1200564E-05  regul_1
 pi18    0.000000       3.6673391E-05  regul_1
 pi19    0.000000       2.5828052E-05  regul_1
 pi20    0.000000       1.4104365E-05  regul_1
 pi21    0.000000       1.0916949E-05  regul_1
 pi22    0.000000       9.5616228E-06  regul_1
 pi23    0.000000       6.2745421E-06  regul_1
 pi24    0.000000       2.7554339E-06  regul_1
 pi25    0.000000       8.9329772E-07  regul_1
 pi26    0.000000       3.2001820E-07  regul_1
 pi27    0.000000        0.000000      regul_1
 pi28    0.000000       6.5887679E-03  regul_1
 pi29    0.000000       1.1868672E-03  regul_1
 pi30    0.000000       2.8947753E-03  regul_1
 pi31    0.000000       6.5887670E-03  regul_1
 pi32    0.000000       2.8947751E-03  regul_1
 pi33    0.000000       8.7134463E-04  regul_1
 pi34    0.000000       8.7134464E-04  regul_1
 pi35    0.000000       8.7134460E-04  regul_1
 pi36    0.000000       4.3126345E-04  regul_1
 pi37    0.000000       2.9856923E-04  regul_1
 pi38    0.000000       2.9856923E-04  regul_1
 pi39    0.000000       1.8622435E-04  regul_1
 pi40    0.000000       1.0802110E-04  regul_1
 pi41    0.000000       1.2300574E-04  regul_1
 pi42    0.000000       1.0802110E-04  regul_1
 pi43    0.000000       7.4383713E-05  regul_1
 pi44    0.000000       3.6673392E-05  regul_1
 pi45    0.000000       4.1200563E-05  regul_1
 pi46    0.000000       3.6673391E-05  regul_1
 pi47    0.000000       2.5828052E-05  regul_1
 pi48    0.000000       9.5616228E-06  regul_1
 pi49    0.000000       1.0916949E-05  regul_1
 pi50    0.000000       9.5616228E-06  regul_1
 pi51    0.000000       6.2745420E-06  regul_1
 pi52    0.000000       1.1648993E-06  regul_1
 pi53    0.000000       8.9329773E-07  regul_1
 pi54    0.000000       3.2001820E-07  regul_1
 pi55    0.000000       6.5887679E-03  regul_1
 pi56    0.000000       8.7134464E-04  regul_1
 pi57    0.000000       2.8947753E-03  regul_1
 pi58    0.000000       6.5887679E-03  regul_1
 pi59    0.000000       2.8947753E-03  regul_1
 pi60    0.000000       4.3126346E-04  regul_1
 pi61    0.000000       1.1868672E-03  regul_1
 pi62    0.000000       8.7134463E-04  regul_1
 pi63    0.000000       1.8622435E-04  regul_1
 pi64    0.000000       3.5636039E-04  regul_1
 pi65    0.000000       2.9856923E-04  regul_1
 pi66    0.000000       7.4383713E-05  regul_1
 pi67    0.000000       1.0802110E-04  regul_1
 pi68    0.000000       1.2300574E-04  regul_1
 pi69    0.000000       1.0802110E-04  regul_1
 pi70    0.000000       2.5828052E-05  regul_1
 pi71    0.000000       3.6673391E-05  regul_1
 pi72    0.000000       4.1200564E-05  regul_1
 pi73    0.000000       3.6673392E-05  regul_1
 pi74    0.000000       6.2745421E-06  regul_1
 pi75    0.000000       9.5616228E-06  regul_1
 pi76    0.000000       1.0916949E-05  regul_1
 pi77    0.000000       9.5616228E-06  regul_1
 pi78    0.000000       8.9329772E-07  regul_1
 pi79    0.000000       1.1648993E-06  regul_1
 pi80    0.000000       8.9329769E-07  regul_1
 pi81    0.000000       2.9856923E-04  regul_1
 pi82    0.000000       8.7134464E-04  regul_1
 pi83    0.000000       2.8947753E-03  regul_1
 pi84    0.000000       6.5887679E-03  regul_1
 pi85    0.000000       1.8622435E-04  regul_1
 pi86    0.000000       8.7134464E-04  regul_1
 pi87    0.000000       1.1868672E-03  regul_1
 pi88    0.000000       9.5156242E-05  regul_1
 pi89    0.000000       2.9856923E-04  regul_1
 pi90    0.000000       3.5636038E-04  regul_1
 pi91    0.000000       4.1200564E-05  regul_1
 pi92    0.000000       7.4383712E-05  regul_1
 pi93    0.000000       1.0802110E-04  regul_1
 pi94    0.000000       1.2300574E-04  regul_1
 pi95    0.000000       1.4104365E-05  regul_1
 pi96    0.000000       2.5828052E-05  regul_1
 pi97    0.000000       3.6673392E-05  regul_1
 pi98    0.000000       4.1200564E-05  regul_1
 pi99    0.000000       2.7554338E-06  regul_1
 pi100    0.000000       6.2745421E-06  regul_1
 pi101    0.000000       9.5616228E-06  regul_1
 pi102    0.000000       1.0916949E-05  regul_1
 pi103    0.000000       3.2001818E-07  regul_1
 pi104    0.000000       8.9329769E-07  regul_1
 pi105    0.000000       1.1648992E-06  regul_1
 pi106    0.000000       6.5887679E-03  regul_1
 pi107    0.000000       1.1868672E-03  regul_1
 pi108    0.000000       3.5636039E-04  regul_1
 pi109    0.000000       6.5887679E-03  regul_1
 pi110    0.000000       8.7134463E-04  regul_1
 pi111    0.000000       2.9856923E-04  regul_1
 pi112    0.000000       1.1868672E-03  regul_1
 pi113    0.000000       4.3126347E-04  regul_1
 pi114    0.000000       1.8622435E-04  regul_1
 pi115    0.000000       3.5636038E-04  regul_1
 pi116    0.000000       2.9856923E-04  regul_1
 pi117    0.000000       1.8622435E-04  regul_1
 pi118    0.000000       9.5156245E-05  regul_1
 pi119    0.000000       1.2300574E-04  regul_1
 pi120    0.000000       1.0802110E-04  regul_1
 pi121    0.000000       7.4383713E-05  regul_1
 pi122    0.000000       4.1200564E-05  regul_1
 pi123    0.000000       4.1200564E-05  regul_1
 pi124    0.000000       3.6673392E-05  regul_1
 pi125    0.000000       2.5828052E-05  regul_1
 pi126    0.000000       1.4104365E-05  regul_1
 pi127    0.000000       9.5616228E-06  regul_1
 pi128    0.000000       6.2745421E-06  regul_1
 pi129    0.000000       2.7554338E-06  regul_1
 pi130    0.000000       6.5887682E-03  regul_1
 pi131    0.000000       1.1868672E-03  regul_1
 pi132    0.000000       2.8947751E-03  regul_1
 pi133    0.000000       2.8947753E-03  regul_1
 pi134    0.000000       8.7134464E-04  regul_1
 pi135    0.000000       8.7134455E-04  regul_1
 pi136    0.000000       8.7134463E-04  regul_1
 pi137    0.000000       4.3126346E-04  regul_1
 pi138    0.000000       2.9856923E-04  regul_1
 pi139    0.000000       3.5636038E-04  regul_1
 pi140    0.000000       2.9856923E-04  regul_1
 pi141    0.000000       1.8622434E-04  regul_1
 pi142    0.000000       1.0802110E-04  regul_1
 pi143    0.000000       1.2300574E-04  regul_1
 pi144    0.000000       1.0802110E-04  regul_1
 pi145    0.000000       7.4383713E-05  regul_1
 pi146    0.000000       3.6673391E-05  regul_1
 pi147    0.000000       4.1200564E-05  regul_1
 pi148    0.000000       3.6673391E-05  regul_1
 pi149    0.000000       2.5828052E-05  regul_1
 pi150    0.000000       1.0916949E-05  regul_1
 pi151    0.000000       9.5616226E-06  regul_1
 pi152    0.000000       6.2745418E-06  regul_1
 pi153    0.000000       6.5887679E-03  regul_1
 pi154    0.000000       8.7134460E-04  regul_1
 pi155    0.000000       6.5887682E-03  regul_1
 pi156    0.000000       2.8947753E-03  regul_1
 pi157    0.000000       4.3126344E-04  regul_1
 pi158    0.000000       1.1868672E-03  regul_1
 pi159    0.000000       8.7134463E-04  regul_1
 pi160    0.000000       1.8622435E-04  regul_1
 pi161    0.000000       2.9856922E-04  regul_1
 pi162    0.000000       3.5636039E-04  regul_1
 pi163    0.000000       2.9856921E-04  regul_1
 pi164    0.000000       7.4383712E-05  regul_1
 pi165    0.000000       1.0802110E-04  regul_1
 pi166    0.000000       1.2300574E-04  regul_1
 pi167    0.000000       1.0802110E-04  regul_1
 pi168    0.000000       2.5828052E-05  regul_1
 pi169    0.000000       3.6673391E-05  regul_1
 pi170    0.000000       4.1200564E-05  regul_1
 pi171    0.000000       3.6673392E-05  regul_1
 pi172    0.000000       9.5616226E-06  regul_1
 pi173    0.000000       1.0916949E-05  regul_1
 pi174    0.000000       9.5616223E-06  regul_1
 pi175    0.000000       2.9856923E-04  regul_1
 pi176    0.000000       2.8947753E-03  regul_1
 pi177    0.000000       6.5887679E-03  regul_1
 pi178    0.000000       1.8622435E-04  regul_1
 pi179    0.000000       8.7134464E-04  regul_1
 pi180    0.000000       1.1868672E-03  regul_1
 pi181    0.000000       9.5156246E-05  regul_1
 pi182    0.000000       1.8622435E-04  regul_1
 pi183    0.000000       2.9856923E-04  regul_1
 pi184    0.000000       3.5636038E-04  regul_1
 pi185    0.000000       4.1200564E-05  regul_1
 pi186    0.000000       7.4383713E-05  regul_1
 pi187    0.000000       1.0802110E-04  regul_1
 pi188    0.000000       1.2300574E-04  regul_1
 pi189    0.000000       1.4104365E-05  regul_1
 pi190    0.000000       2.5828052E-05  regul_1
 pi191    0.000000       3.6673392E-05  regul_1
 pi192    0.000000       4.1200564E-05  regul_1
 pi193    0.000000       6.2745421E-06  regul_1
 pi194    0.000000       9.5616228E-06  regul_1
 pi195    0.000000       1.0916949E-05  regul_1
 pi196    0.000000       1.1868672E-03  regul_1
 pi197    0.000000       3.5636038E-04  regul_1
 pi198    0.000000       6.5887679E-03  regul_1
 pi199    0.000000       8.7134463E-04  regul_1
 pi200    0.000000       2.9856923E-04  regul_1
 pi201    0.000000       1.1868672E-03  regul_1
 pi202    0.000000       8.7134464E-04  regul_1
 pi203    0.000000       4.3126345E-04  regul_1
 pi204    0.000000       1.8622435E-04  regul_1
 pi205    0.000000       3.5636039E-04  regul_1
 pi206    0.000000       2.9856922E-04  regul_1
 pi207    0.000000       1.8622435E-04  regul_1
 pi208    0.000000       9.5156246E-05  regul_1
 pi209    0.000000       1.2300574E-04  regul_1
 pi210    0.000000       1.0802110E-04  regul_1
 pi211    0.000000       7.4383713E-05  regul_1
 pi212    0.000000       4.1200563E-05  regul_1
 pi213    0.000000       3.6673392E-05  regul_1
 pi214    0.000000       2.5828052E-05  regul_1
 pi215    0.000000       1.4104365E-05  regul_1
 pi216    0.000000       6.5887682E-03  regul_1
 pi217    0.000000       8.7134455E-04  regul_1
 pi218    0.000000       6.5887679E-03  regul_1
 pi219    0.000000       2.8947753E-03  regul_1
 pi220    0.000000       4.3126347E-04  regul_1
 pi221    0.000000       8.7134460E-04  regul_1
 pi222    0.000000       1.1868672E-03  regul_1
 pi223    0.000000       8.7134455E-04  regul_1
 pi224    0.000000       1.8622435E-04  regul_1
 pi225    0.000000       2.9856923E-04  regul_1
 pi226    0.000000       3.5636039E-04  regul_1
 pi227    0.000000       2.9856923E-04  regul_1
 pi228    0.000000       7.4383712E-05  regul_1
 pi229    0.000000       1.0802110E-04  regul_1
 pi230    0.000000       1.2300574E-04  regul_1
 pi231    0.000000       1.0802110E-04  regul_1
 pi232    0.000000       3.6673391E-05  regul_1
 pi233    0.000000       4.1200563E-05  regul_1
 pi234    0.000000       3.6673390E-05  regul_1
 pi235    0.000000       2.9856921E-04  regul_1
 pi236    0.000000       2.8947753E-03  regul_1
 pi237    0.000000       6.5887679E-03  regul_1
 pi238    0.000000       1.8622435E-04  regul_1
 pi239    0.000000       4.3126345E-04  regul_1
 pi240    0.000000       8.7134464E-04  regul_1
 pi241    0.000000       1.1868671E-03  regul_1
 pi242    0.000000       9.5156245E-05  regul_1
 pi243    0.000000       1.8622435E-04  regul_1
 pi244    0.000000       2.9856923E-04  regul_1
 pi245    0.000000       3.5636038E-04  regul_1
 pi246    0.000000       4.1200563E-05  regul_1
 pi247    0.000000       7.4383713E-05  regul_1
 pi248    0.000000       1.0802110E-04  regul_1
 pi249    0.000000       1.2300574E-04  regul_1
 pi250    0.000000       2.5828052E-05  regul_1
 pi251    0.000000       3.6673391E-05  regul_1
 pi252    0.000000       4.1200562E-05  regul_1
 pi253    0.000000       1.1868672E-03  regul_1
 pi254    0.000000       3.5636038E-04  regul_1
 pi255    0.000000       6.5887655E-03  regul_1
 pi256    0.000000       2.8947753E-03  regul_1
 pi257    0.000000       8.7134455E-04  regul_1
 pi258    0.000000       2.9856923E-04  regul_1
 pi259    0.000000       1.1868672E-03  regul_1
 pi260    0.000000       8.7134455E-04  regul_1
 pi261    0.000000       4.3126344E-04  regul_1
 pi262    0.000000       1.8622435E-04  regul_1
 pi263    0.000000       3.5636038E-04  regul_1
 pi264    0.000000       2.9856922E-04  regul_1
 pi265    0.000000       1.8622435E-04  regul_1
 pi266    0.000000       9.5156242E-05  regul_1
 pi267    0.000000       1.0802110E-04  regul_1
 pi268    0.000000       7.4383713E-05  regul_1
 pi269    0.000000       4.1200564E-05  regul_1
 pi270    0.000000       6.5887682E-03  regul_1
 pi271    0.000000       8.7134463E-04  regul_1
 pi272    0.000000       2.8947753E-03  regul_1
 pi273    0.000000       6.5887679E-03  regul_1
 pi274    0.000000       2.8947751E-03  regul_1
 pi275    0.000000       4.3126346E-04  regul_1
 pi276    0.000000       8.7134463E-04  regul_1
 pi277    0.000000       1.1868672E-03  regul_1
 pi278    0.000000       8.7134464E-04  regul_1
 pi279    0.000000       1.8622435E-04  regul_1
 pi280    0.000000       2.9856923E-04  regul_1
 pi281    0.000000       3.5636039E-04  regul_1
 pi282    0.000000       2.9856923E-04  regul_1
 pi283    0.000000       1.0802110E-04  regul_1
 pi284    0.000000       1.2300574E-04  regul_1
 pi285    0.000000       1.0802110E-04  regul_1
 pi286    0.000000       2.9856923E-04  regul_1
 pi287    0.000000       8.7134463E-04  regul_1
 pi288    0.000000       2.8947753E-03  regul_1
 pi289    0.000000       6.5887670E-03  regul_1
 pi290    0.000000       1.8622435E-04  regul_1
 pi291    0.000000       4.3126346E-04  regul_1
 pi292    0.000000       8.7134463E-04  regul_1
 pi293    0.000000       1.1868672E-03  regul_1
 pi294    0.000000       9.5156246E-05  regul_1
 pi295    0.000000       1.8622435E-04  regul_1
 pi296    0.000000       2.9856923E-04  regul_1
 pi297    0.000000       3.5636038E-04  regul_1
 pi298    0.000000       7.4383713E-05  regul_1
 pi299    0.000000       1.0802110E-04  regul_1
 pi300    0.000000       1.2300574E-04  regul_1
 pi301    0.000000       6.5887670E-03  regul_1
 pi302    0.000000       1.1868672E-03  regul_1
 pi303    0.000000       3.5636036E-04  regul_1
 pi304    0.000000       6.5887670E-03  regul_1
 pi305    0.000000       2.8947753E-03  regul_1
 pi306    0.000000       8.7134464E-04  regul_1
 pi307    0.000000       2.9856923E-04  regul_1
 pi308    0.000000       1.1868672E-03  regul_1
 pi309    0.000000       8.7134463E-04  regul_1
 pi310    0.000000       4.3126346E-04  regul_1
 pi311    0.000000       1.8622435E-04  regul_1
 pi312    0.000000       2.9856922E-04  regul_1
 pi313    0.000000       1.8622435E-04  regul_1
 pi314    0.000000       9.5156242E-05  regul_1
 pi315    0.000000       6.5887670E-03  regul_1
 pi316    0.000000       1.1868672E-03  regul_1
 pi317    0.000000       2.8947753E-03  regul_1
 pi318    0.000000       6.5887670E-03  regul_1
 pi319    0.000000       2.8947751E-03  regul_1
 pi320    0.000000       8.7134463E-04  regul_1
 pi321    0.000000       8.7134464E-04  regul_1
 pi322    0.000000       1.1868672E-03  regul_1
 pi323    0.000000       8.7134463E-04  regul_1
 pi324    0.000000       4.3126345E-04  regul_1
 pi325    0.000000       3.5636039E-04  regul_1
 pi326    0.000000       2.9856923E-04  regul_1
 pi327    0.000000       1.8622435E-04  regul_1
 pi328    0.000000       6.5887655E-03  regul_1
 pi329    0.000000       8.7134460E-04  regul_1
 pi330    0.000000       2.8947753E-03  regul_1
 pi331    0.000000       6.5887682E-03  regul_1
 pi332    0.000000       2.8947753E-03  regul_1
 pi333    0.000000       4.3126345E-04  regul_1
 pi334    0.000000       8.7134463E-04  regul_1
 pi335    0.000000       1.1868672E-03  regul_1
 pi336    0.000000       8.7134464E-04  regul_1
 pi337    0.000000       2.9856922E-04  regul_1
 pi338    0.000000       3.5636038E-04  regul_1
 pi339    0.000000       2.9856921E-04  regul_1
 pi340    0.000000       2.9856923E-04  regul_1
 pi341    0.000000       8.7134455E-04  regul_1
 pi342    0.000000       2.8947747E-03  regul_1
 pi343    0.000000       6.5887670E-03  regul_1
 pi344    0.000000       1.8622435E-04  regul_1
 pi345    0.000000       4.3126345E-04  regul_1
 pi346    0.000000       8.7134460E-04  regul_1
 pi347    0.000000       1.1868671E-03  regul_1
 pi348    0.000000       1.8622435E-04  regul_1
 pi349    0.000000       2.9856923E-04  regul_1
 pi350    0.000000       3.5636039E-04  regul_1
 pi351    0.000000       6.5887670E-03  regul_1
 pi352    0.000000       1.1868672E-03  regul_1
 pi353    0.000000       3.5636038E-04  regul_1
 pi354    0.000000       6.5887682E-03  regul_1
 pi355    0.000000       2.8947753E-03  regul_1
 pi356    0.000000       8.7134463E-04  regul_1
 pi357    0.000000       2.9856922E-04  regul_1
 pi358    0.000000       8.7134464E-04  regul_1
 pi359    0.000000       4.3126347E-04  regul_1
 pi360    0.000000       1.8622435E-04  regul_1
 pi361    0.000000       6.5887682E-03  regul_1
 pi362    0.000000       1.1868672E-03  regul_1
 pi363    0.000000       2.8947751E-03  regul_1
 pi364    0.000000       6.5887679E-03  regul_1
 pi365    0.000000       2.8947753E-03  regul_1
 pi366    0.000000       8.7134464E-04  regul_1
 pi367    0.000000       1.1868672E-03  regul_1
 pi368    0.000000       8.7134460E-04  regul_1
 pi369    0.000000       4.3126344E-04  regul_1
 pi370    0.000000       6.5887679E-03  regul_1
 pi371    0.000000       8.7134460E-04  regul_1
 pi372    0.000000       2.8947753E-03  regul_1
 pi373    0.000000       6.5887679E-03  regul_1
 pi374    0.000000       2.8947753E-03  regul_1
 pi375    0.000000       8.7134460E-04  regul_1
 pi376    0.000000       1.1868672E-03  regul_1
 pi377    0.000000       8.7134455E-04  regul_1
 pi378    0.000000       2.9856923E-04  regul_1
 pi379    0.000000       8.7134464E-04  regul_1
 pi380    0.000000       2.8947753E-03  regul_1
 pi381    0.000000       6.5887679E-03  regul_1
 pi382    0.000000       4.3126346E-04  regul_1
 pi383    0.000000       8.7134463E-04  regul_1
 pi384    0.000000       1.1868672E-03  regul_1
 pi385    0.000000       6.5887679E-03  regul_1
 pi386    0.000000       1.1868672E-03  regul_1
 pi387    0.000000       3.5636038E-04  regul_1
 pi388    0.000000       2.8947753E-03  regul_1
 pi389    0.000000       8.7134464E-04  regul_1
 pi390    0.000000       2.9856923E-04  regul_1
 pi391    0.000000       6.5887682E-03  regul_1
 pi392    0.000000       1.1868672E-03  regul_1
 pi393    0.000000       6.5887679E-03  regul_1
 pi394    0.000000       2.8947753E-03  regul_1
 pi395    0.000000       8.7134460E-04  regul_1
 pi396    0.000000       6.5887679E-03  regul_1
 pi397    0.000000       2.8947753E-03  regul_1
 pi398    0.000000       6.5887679E-03  regul_1
 pi399    0.000000       2.8947751E-03  regul_1
 pi400    0.000000       8.7134460E-04  regul_1
 pi401    0.000000       2.8947751E-03  regul_1
 pi402    0.000000       6.5887655E-03  regul_1
 pi403    0.000000       6.5887682E-03  regul_1
 pi404    0.000000       1.1868672E-03  regul_1
 pi405    0.000000       6.5887679E-03  regul_1
 pi406    0.000000       6.5887681E-03  regul_1
 pi407    0.000000       1.1868672E-03  regul_1
 pi408    0.000000       3.5636039E-04  regul_1
 pi409    0.000000       6.5887682E-03  regul_1
 pi410    0.000000       2.8947753E-03  regul_1
 pi411    0.000000       8.7134464E-04  regul_1
 pi412    0.000000       2.9856923E-04  regul_1
 pi413    0.000000       1.1868672E-03  regul_1
 pi414    0.000000       4.3126346E-04  regul_1
 pi415    0.000000       1.8622435E-04  regul_1
 pi416    0.000000       3.5636038E-04  regul_1
 pi417    0.000000       1.8622435E-04  regul_1
 pi418    0.000000       9.5156247E-05  regul_1
 pi419    0.000000       1.2300574E-04  regul_1
 pi420    0.000000       1.0802110E-04  regul_1
 pi421    0.000000       7.4383714E-05  regul_1
 pi422    0.000000       4.1200563E-05  regul_1
 pi423    0.000000       4.1200564E-05  regul_1
 pi424    0.000000       3.6673391E-05  regul_1
 pi425    0.000000       2.5828052E-05  regul_1
 pi426    0.000000       1.4104365E-05  regul_1
 pi427    0.000000       1.0916949E-05  regul_1
 pi428    0.000000       9.5616229E-06  regul_1
 pi429    0.000000       6.2745421E-06  regul_1
 pi430    0.000000       2.7554339E-06  regul_1
 pi431    0.000000       8.9329772E-07  regul_1
 pi432    0.000000       3.2001820E-07  regul_1
 pi433    0.000000        0.000000      regul_1
 pi434    0.000000       6.5887681E-03  regul_1
 pi435    0.000000       1.1868672E-03  regul_1
 pi436    0.000000       2.8947753E-03  regul_1
 pi437    0.000000       6.5887671E-03  regul_1
 pi438    0.000000       2.8947751E-03  regul_1
 pi439    0.000000       8.7134464E-04  regul_1
 pi440    0.000000       8.7134465E-04  regul_1
 pi441    0.000000       8.7134461E-04  regul_1
 pi442    0.000000       4.3126346E-04  regul_1
 pi443    0.000000       2.9856923E-04  regul_1
 pi444    0.000000       2.9856923E-04  regul_1
 pi445    0.000000       1.8622435E-04  regul_1
 pi446    0.000000       1.0802110E-04  regul_1
 pi447    0.000000       1.2300574E-04  regul_1
 pi448    0.000000       1.0802110E-04  regul_1
 pi449    0.000000       7.4383714E-05  regul_1
 pi450    0.000000       3.6673392E-05  regul_1
 pi451    0.000000       4.1200562E-05  regul_1
 pi452    0.000000       3.6673391E-05  regul_1
 pi453    0.000000       2.5828052E-05  regul_1
 pi454    0.000000       9.5616229E-06  regul_1
 pi455    0.000000       1.0916949E-05  regul_1
 pi456    0.000000       9.5616228E-06  regul_1
 pi457    0.000000       6.2745420E-06  regul_1
 pi458    0.000000       1.1648993E-06  regul_1
 pi459    0.000000       8.9329773E-07  regul_1
 pi460    0.000000       3.2001820E-07  regul_1
 pi461    0.000000       6.5887679E-03  regul_1
 pi462    0.000000       8.7134465E-04  regul_1
 pi463    0.000000       2.8947753E-03  regul_1
 pi464    0.000000       6.5887679E-03  regul_1
 pi465    0.000000       2.8947754E-03  regul_1
 pi466    0.000000       4.3126347E-04  regul_1
 pi467    0.000000       1.1868672E-03  regul_1
 pi468    0.000000       8.7134464E-04  regul_1
 pi469    0.000000       1.8622435E-04  regul_1
 pi470    0.000000       3.5636039E-04  regul_1
 pi471    0.000000       2.9856923E-04  regul_1
 pi472    0.000000       7.4383714E-05  regul_1
 pi473    0.000000       1.0802110E-04  regul_1
 pi474    0.000000       1.2300574E-04  regul_1
 pi475    0.000000       1.0802110E-04  regul_1
 pi476    0.000000       2.5828052E-05  regul_1
 pi477    0.000000       3.6673391E-05  regul_1
 pi478    0.000000       4.1200564E-05  regul_1
 pi479    0.000000       3.6673392E-05  regul_1
 pi480    0.000000       6.2745421E-06  regul_1
 pi481    0.000000       9.5616229E-06  regul_1
 pi482    0.000000       1.0916949E-05  regul_1
 pi483    0.000000       9.5616228E-06  regul_1
 pi484    0.000000       8.9329772E-07  regul_1
 pi485    0.000000       1.1648993E-06  regul_1
 pi486    0.000000       8.9329769E-07  regul_1
 pi487    0.000000       2.9856923E-04  regul_1
 pi488    0.000000       8.7134465E-04  regul_1
 pi489    0.000000       2.8947754E-03  regul_1
 pi490    0.000000       6.5887680E-03  regul_1
 pi491    0.000000       1.8622435E-04  regul_1
 pi492    0.000000       8.7134465E-04  regul_1
 pi493    0.000000       1.1868672E-03  regul_1
 pi494    0.000000       9.5156242E-05  regul_1
 pi495    0.000000       2.9856923E-04  regul_1
 pi496    0.000000       3.5636039E-04  regul_1
 pi497    0.000000       4.1200564E-05  regul_1
 pi498    0.000000       7.4383713E-05  regul_1
 pi499    0.000000       1.0802110E-04  regul_1
 pi500    0.000000       1.2300574E-04  regul_1
 pi501    0.000000       1.4104365E-05  regul_1
 pi502    0.000000       2.5828052E-05  regul_1
 pi503    0.000000       3.6673392E-05  regul_1
 pi504    0.000000       4.1200564E-05  regul_1
 pi505    0.000000       2.7554338E-06  regul_1
 pi506    0.000000       6.2745421E-06  regul_1
 pi507    0.000000       9.5616228E-06  regul_1
 pi508    0.000000       1.0916949E-05  regul_1
 pi509    0.000000       3.2001818E-07  regul_1
 pi510    0.000000       8.9329769E-07  regul_1
 pi511    0.000000       1.1648992E-06  regul_1
 pi512    0.000000       6.5887679E-03  regul_1
 pi513    0.000000       1.1868672E-03  regul_1
 pi514    0.000000       3.5636039E-04  regul_1
 pi515    0.000000       6.5887680E-03  regul_1
 pi516    0.000000       8.7134464E-04  regul_1
 pi517    0.000000       2.9856923E-04  regul_1
 pi518    0.000000       1.1868672E-03  regul_1
 pi519    0.000000       4.3126347E-04  regul_1
 pi520    0.000000       1.8622435E-04  regul_1
 pi521    0.000000       3.5636039E-04  regul_1
 pi522    0.000000       2.9856923E-04  regul_1
 pi523    0.000000       1.8622435E-04  regul_1
 pi524    0.000000       9.5156245E-05  regul_1
 pi525    0.000000       1.2300574E-04  regul_1
 pi526    0.000000       1.0802110E-04  regul_1
 pi527    0.000000       7.4383714E-05  regul_1
 pi528    0.000000       4.1200564E-05  regul_1
 pi529    0.000000       4.1200564E-05  regul_1
 pi530    0.000000       3.6673392E-05  regul_1
 pi531    0.000000       2.5828052E-05  regul_1
 pi532    0.000000       1.4104365E-05  regul_1
 pi533    0.000000       9.5616228E-06  regul_1