pcf
* control data
      restart   regularisation
          156          113            1          464            8
            1            1       single        point            1            0            0
   1.0000      -2.0000      0.30000      3.00000E-02           10
   500.00      1.00000E-02  1.00000E-03
  0.10000    
            0  5.00000E-03            5            3  5.00000E-03            3
            0            0            0
* singular value decomposition
1
156 1.0e-007
0
* parameter groups
 general      relative     1.00000E-02   0.0000         switch   2.0000     outside_pts
* parameter data
 hani_111     none   factor     0.98148      0.49000       1.9600          general   1.0000       0.0000       1
 hani_112     none   factor      1.0334      0.52000       2.0700          general   1.0000       0.0000       1
 hani_113     none   factor      1.0711      0.54000       2.1400          general   1.0000       0.0000       1
 hani_114     none   factor      1.1254      0.56000       2.2500          general   1.0000       0.0000       1
 vani_121     none   factor     2.08998E-02  1.00000E-02  4.20000E-02      general   1.0000       0.0000       1
 vani_122     none   factor     1.28850E-02  6.00000E-03  2.60000E-02      general   1.0000       0.0000       1
 vani_123     none   factor     3.03448E-02  1.50000E-02  6.10000E-02      general   1.0000       0.0000       1
 vani_124     none   factor     0.14993      7.50000E-02  0.30000          general   1.0000       0.0000       1
 drn_1401     none   factor     0.50638      0.37780      0.75673          general   1.0000       0.0000       1
 drn_1402     none   factor     0.71965      0.53776      0.93954          general   1.0000       0.0000       1
 drn_1403     none   factor     0.46817      0.34915      0.72398          general   1.0000       0.0000       1
 drn_1404     none   factor     0.59232      0.44226      0.83040          general   1.0000       0.0000       1
 drn_1405     none   factor     0.60762      0.45373      0.84351          general   1.0000       0.0000       1
 drn_1406     none   factor     0.50476      0.37659      0.75535          general   1.0000       0.0000       1
 drn_1407     none   factor     0.44964      0.33525      0.70810          general   1.0000       0.0000       1
 drn_1408     none   factor     0.53307      0.39782      0.77961          general   1.0000       0.0000       1
 drn_1409     none   factor     0.62460      0.46647      0.85807          general   1.0000       0.0000       1
 drn_1410     none   factor     0.55460      0.41397      0.79807          general   1.0000       0.0000       1
 drn_1411     none   factor     0.50833      0.37927      0.75840          general   1.0000       0.0000       1
 drn_1412     none   factor     0.54740      0.40857      0.79190          general   1.0000       0.0000       1
 drn_1413     none   factor     0.56280      0.42012      0.80510          general   1.0000       0.0000       1
 drn_1414     none   factor     0.44844      0.33435      0.70707          general   1.0000       0.0000       1
 drn_1415     none   factor     0.53656      0.40044      0.78260          general   1.0000       0.0000       1
 drn_1416     none   factor     0.56156      0.41919      0.80403          general   1.0000       0.0000       1
 drn_1417     none   factor     0.66814      0.49913      0.89539          general   1.0000       0.0000       1
 drn_1418     none   factor     0.47307      0.35282      0.72818          general   1.0000       0.0000       1
 drn_1419     none   factor     0.60232      0.44976      0.83897          general   1.0000       0.0000       1
 drn_1420     none   factor     0.51187      0.38192      0.76144          general   1.0000       0.0000       1
 drn_1421     none   factor     0.50035      0.37328      0.75157          general   1.0000       0.0000       1
 drn_1422     none   factor     0.59749      0.44613      0.83482          general   1.0000       0.0000       1
 drn_1423     none   factor     0.49297      0.36775      0.74524          general   1.0000       0.0000       1
 ghb_1101     log    factor     7.41440E-03  6.67455E-03  7.85273E-03      general   1.0000       0.0000       1
 ghb_1102     log    factor     8.39963E-03  7.57768E-03  8.83795E-03      general   1.0000       0.0000       1
 ghb_1103     log    factor     7.54107E-03  6.79067E-03  7.97940E-03      general   1.0000       0.0000       1
 ghb_1104     log    factor     6.87316E-03  6.17842E-03  7.31149E-03      general   1.0000       0.0000       1
 ghb_1105     log    factor     6.75274E-03  6.06804E-03  7.19107E-03      general   1.0000       0.0000       1
 ghb_1106     log    factor     6.36981E-03  5.71701E-03  6.80813E-03      general   1.0000       0.0000       1
 ghb_1107     log    factor     6.00673E-03  5.38420E-03  6.44506E-03      general   1.0000       0.0000       1
 ghb_1108     log    factor     5.68499E-03  5.08926E-03  6.12332E-03      general   1.0000       0.0000       1
 ghb_1109     log    factor     5.36425E-03  4.79525E-03  5.80258E-03      general   1.0000       0.0000       1
 ghb_1110     log    factor     5.06845E-03  4.52410E-03  5.50678E-03      general   1.0000       0.0000       1
 ghb_1111     log    factor     6.07285E-03  5.44480E-03  6.51118E-03      general   1.0000       0.0000       1
 ghb_1112     log    factor     7.11816E-03  6.40300E-03  7.55649E-03      general   1.0000       0.0000       1
 ghb_1113     log    factor     8.33173E-03  7.51545E-03  8.77006E-03      general   1.0000       0.0000       1
 ghb_1114     log    factor     7.01814E-03  6.31132E-03  7.45647E-03      general   1.0000       0.0000       1
 ghb_1115     log    factor     8.59078E-03  7.75290E-03  9.02911E-03      general   1.0000       0.0000       1
 ghb_1116     log    factor     7.35526E-03  6.62035E-03  7.79359E-03      general   1.0000       0.0000       1
 ghb_1117     log    factor     6.46955E-03  5.80845E-03  6.90788E-03      general   1.0000       0.0000       1
 ghb_1118     log    factor     7.88308E-03  7.10418E-03  8.32141E-03      general   1.0000       0.0000       1
 ghb_1119     log    factor     8.25327E-03  7.44352E-03  8.69160E-03      general   1.0000       0.0000       1
 ghb_1120     log    factor     7.57971E-03  6.82609E-03  8.01804E-03      general   1.0000       0.0000       1
 ghb_1121     log    factor     5.44461E-03  4.86891E-03  5.88294E-03      general   1.0000       0.0000       1
 str_1201     none   factor      1.2797       1.1735       1.3854          general   1.0000       0.0000       1
 str_1222     none   factor      1.2844       1.1779       1.3891          general   1.0000       0.0000       1
 str_1202     none   factor     0.99737      0.91475       1.1636          general   1.0000       0.0000       1
 str_1223     none   factor      1.2670       1.1619       1.3754          general   1.0000       0.0000       1
 str_1203     none   factor      1.2910       1.1839       1.3943          general   1.0000       0.0000       1
 str_1224     none   factor      1.2876       1.1808       1.3916          general   1.0000       0.0000       1
 str_1204     none   factor      1.3340       1.2233       1.4281          general   1.0000       0.0000       1
 str_1225     none   factor      1.3282       1.2180       1.4236          general   1.0000       0.0000       1
 str_1205     none   factor     0.79526      0.72949       1.0048          general   1.0000       0.0000       1
 str_1226     none   factor      1.3155       1.2064       1.4136          general   1.0000       0.0000       1
 str_1206     none   factor      1.2695       1.1642       1.3774          general   1.0000       0.0000       1
 str_1227     none   factor      1.4075       1.2907       1.4858          general   1.0000       0.0000       1
 str_1207     none   factor      1.3304       1.2200       1.4253          general   1.0000       0.0000       1
 str_1228     none   factor      1.1111       1.0190       1.2529          general   1.0000       0.0000       1
 str_1208     none   factor      1.1911       1.0924       1.3158          general   1.0000       0.0000       1
 str_1229     none   factor      1.4888       1.3652       1.5497          general   1.0000       0.0000       1
 str_1230     none   factor      1.2810       1.1747       1.3864          general   1.0000       0.0000       1
 str_1209     none   factor      1.4167       1.2991       1.4931          general   1.0000       0.0000       1
 str_1210     none   factor     0.80920      0.74226       1.0157          general   1.0000       0.0000       1
 str_1211     none   factor     0.96681      0.88674       1.1396          general   1.0000       0.0000       1
 str_1212     none   factor      1.2913       1.1842       1.3946          general   1.0000       0.0000       1
 str_1213     none   factor     0.96668      0.88662       1.1395          general   1.0000       0.0000       1
 str_1214     none   factor      1.2781       1.1720       1.3841          general   1.0000       0.0000       1
 str_1215     none   factor      1.1577       1.0617       1.2896          general   1.0000       0.0000       1
 str_1216     none   factor      1.1318       1.0380       1.2692          general   1.0000       0.0000       1
 str_1217     none   factor      1.1106       1.0185       1.2526          general   1.0000       0.0000       1
 str_1218     none   factor      1.1004       1.0092       1.2446          general   1.0000       0.0000       1
 str_1219     none   factor     0.96488      0.88497       1.1381          general   1.0000       0.0000       1
 str_1220     none   factor     0.97324      0.89264       1.1446          general   1.0000       0.0000       1
 str_1221     none   factor     0.96084      0.88127       1.1349          general   1.0000       0.0000       1
 sc1v1        log    factor     9.90391E-02  5.27353E-02  0.18236          general   1.0000       0.0000       1
 sc1v2        log    factor     9.98354E-02  5.27353E-02  0.18236          general   1.0000       0.0000       1
 sc1v3        log    factor     0.11197      5.27353E-02  0.18236          general   1.0000       0.0000       1
 sc1v4        log    factor     9.50800E-02  5.27353E-02  0.18236          general   1.0000       0.0000       1
 sc1v5        log    factor     0.10028      5.27353E-02  0.18236          general   1.0000       0.0000       1
 sc1v6        log    factor     8.85077E-02  5.27353E-02  0.18236          general   1.0000       0.0000       1
 sc1v7        log    factor     5.46692E-02  5.27353E-02  0.18236          general   1.0000       0.0000       1
 sc1v8        log    factor     0.10490      5.27353E-02  0.18236          general   1.0000       0.0000       1
 sc1v9        log    factor     0.10172      5.27353E-02  0.18236          general   1.0000       0.0000       1
 sc2v1        log    factor     0.35606      0.28889      0.93614          general   1.0000       0.0000       1
 sc2v2        log    factor     0.46258      0.28889      0.93614          general   1.0000       0.0000       1
 sc2v3        log    factor     0.71127      0.28889      0.93614          general   1.0000       0.0000       1
 sc2v4        log    factor     0.72888      0.28889      0.93614          general   1.0000       0.0000       1
 sc2v5        log    factor     0.70056      0.28889      0.93614          general   1.0000       0.0000       1
 sc2v6        log    factor     0.55082      0.28889      0.93614          general   1.0000       0.0000       1
 sc2v7        log    factor     0.34078      0.28889      0.93614          general   1.0000       0.0000       1
 sc2v8        log    factor     0.76165      0.28889      0.93614          general   1.0000       0.0000       1
 sc2v9        log    factor     0.60008      0.28889      0.93614          general   1.0000       0.0000       1
 sc3v1        log    factor     0.18561      9.99541E-02  0.36254          general   1.0000       0.0000       1
 sc3v2        log    factor     0.21282      9.99541E-02  0.36254          general   1.0000       0.0000       1
 sc3v3        log    factor     0.23821      9.99541E-02  0.36254          general   1.0000       0.0000       1
 sc3v4        log    factor     0.20600      9.99541E-02  0.36254          general   1.0000       0.0000       1
 sc3v5        log    factor     0.21203      9.99541E-02  0.36254          general   1.0000       0.0000       1
 sc3v6        log    factor     0.20955      9.99541E-02  0.36254          general   1.0000       0.0000       1
 sc3v7        log    factor     0.19688      9.99541E-02  0.36254          general   1.0000       0.0000       1
 sc3v8        log    factor     0.22579      9.99541E-02  0.36254          general   1.0000       0.0000       1
 sc3v9        log    factor     0.21666      9.99541E-02  0.36254          general   1.0000       0.0000       1
 sc4v1        none   factor      9.6929       5.0803       19.542          general   1.0000       0.0000       1
 sc4v2        none   factor      9.8091       5.0803       19.542          general   1.0000       0.0000       1
 sc4v3        none   factor      10.495       5.0803       19.542          general   1.0000       0.0000       1
 sc4v4        none   factor      7.8927       5.0803       19.542          general   1.0000       0.0000       1
 sc4v5        none   factor      10.495       5.0803       19.542          general   1.0000       0.0000       1
 sc4v6        none   factor      7.8023       5.0803       19.542          general   1.0000       0.0000       1
 sc4v7        none   factor      8.6953       5.0803       19.542          general   1.0000       0.0000       1
 sc4v8        none   factor      10.495       5.0803       19.542          general   1.0000       0.0000       1
 sc4v9        none   factor      10.495       5.0803       19.542          general   1.0000       0.0000       1
 sc5v1        log    factor     2.42896E-04  3.12451E-05  2.54627E-03      general   1.0000       0.0000       1
 sc5v2        log    factor     2.35957E-04  3.12451E-05  2.54627E-03      general   1.0000       0.0000       1
 sc5v3        log    factor     2.14753E-04  3.12451E-05  2.54627E-03      general   1.0000       0.0000       1
 sc5v4        log    factor     6.67883E-04  3.12451E-05  2.54627E-03      general   1.0000       0.0000       1
 sc5v5        log    factor     3.57625E-04  3.12451E-05  2.54627E-03      general   1.0000       0.0000       1
 sc5v6        log    factor     3.61510E-04  3.12451E-05  2.54627E-03      general   1.0000       0.0000       1
 sc5v7        log    factor     3.51533E-04  3.12451E-05  2.54627E-03      general   1.0000       0.0000       1
 sc5v8        log    factor     1.06298E-03  3.12451E-05  2.54627E-03      general   1.0000       0.0000       1
 sc5v9        log    factor     2.33824E-04  3.12451E-05  2.54627E-03      general   1.0000       0.0000       1
 sc5v10       log    factor     2.39116E-04  3.12451E-05  2.54627E-03      general   1.0000       0.0000       1
 sc5v11       log    factor     5.45443E-04  3.12451E-05  2.54627E-03      general   1.0000       0.0000       1
 sc5v12       log    factor     1.06298E-03  3.12451E-05  2.54627E-03      general   1.0000       0.0000       1
 sc5v13       log    factor     2.47994E-04  3.12451E-05  2.54627E-03      general   1.0000       0.0000       1
 sc5v14       log    factor     2.47485E-04  3.12451E-05  2.54627E-03      general   1.0000       0.0000       1
 sc5v15       log    factor     3.35000E-04  3.12451E-05  2.54627E-03      general   1.0000       0.0000       1
 sc5v16       log    factor     1.06298E-03  3.12451E-05  2.54627E-03      general   1.0000       0.0000       1
 sc6v1        log    factor     9.75394E-04  3.12451E-05  2.54627E-03      general   1.0000       0.0000       1
 sc6v2        log    factor     6.11099E-04  3.12451E-05  2.54627E-03      general   1.0000       0.0000       1
 sc6v3        log    factor     1.25852E-03  3.12451E-05  2.54627E-03      general   1.0000       0.0000       1
 sc7v1        log    factor     5.63175E-04  3.12451E-05  2.54627E-03      general   1.0000       0.0000       1
 sc7v2        log    factor     7.97625E-05  3.12451E-05  2.54627E-03      general   1.0000       0.0000       1
 sc7v3        log    factor     9.98502E-05  3.12451E-05  2.54627E-03      general   1.0000       0.0000       1
 sc8v1        log    factor     2.04590E-04  3.12781E-05  5.65330E-04      general   1.0000       0.0000       1
 sc8v2        log    factor     2.57286E-04  3.12781E-05  5.65330E-04      general   1.0000       0.0000       1
 sc8v3        log    factor     2.57260E-04  3.12781E-05  5.65330E-04      general   1.0000       0.0000       1
 sc8v4        log    factor     1.08985E-04  3.12781E-05  5.65330E-04      general   1.0000       0.0000       1
 sc8v5        log    factor     1.05846E-04  3.12781E-05  5.65330E-04      general   1.0000       0.0000       1
 sc8v6        log    factor     8.36965E-05  3.12781E-05  5.65330E-04      general   1.0000       0.0000       1
 sc8v7        log    factor     1.76592E-04  3.12781E-05  5.65330E-04      general   1.0000       0.0000       1
 sc8v8        log    factor     1.04174E-04  3.12781E-05  5.65330E-04      general   1.0000       0.0000       1
 sc8v9        log    factor     2.54038E-04  3.12781E-05  5.65330E-04      general   1.0000       0.0000       1
 sc8v10       log    factor     1.12049E-04  3.12781E-05  5.65330E-04      general   1.0000       0.0000       1
 sc8v11       log    factor     2.10133E-04  3.12781E-05  5.65330E-04      general   1.0000       0.0000       1
 sc8v12       log    factor     1.12220E-04  3.12781E-05  5.65330E-04      general   1.0000       0.0000       1
 sc8v13       log    factor     2.08714E-04  3.12781E-05  5.65330E-04      general   1.0000       0.0000       1
 sc8v14       log    factor     2.43791E-04  3.12781E-05  5.65330E-04      general   1.0000       0.0000       1
 sc8v15       log    factor     1.41548E-04  3.12781E-05  5.65330E-04      general   1.0000       0.0000       1
 sc8v16       log    factor     1.12994E-04  3.12781E-05  5.65330E-04      general   1.0000       0.0000       1
* observation groups
 head
 drain
 ghb
 stream
 const_head
 regul_1
 regul_2
 regul_3
* observation data
 hed1           93.2700       1.850472E-03  head
 hed2           92.6500       0.252284      head
 hed3           92.2800       0.269621      head
 hed4           90.8000       9.726468E-02  head
 hed5           89.1600       0.266813      head
 hed6           88.8500       0.278389      head
 hed7           88.3200       0.288973      head
 hed8           88.1700       0.288973      head
 hed9           88.0500       0.210831      head
 hed10          87.8000       0.198517      head
 hed11          87.7900       0.291341      head
 hed12          85.5200       1.978980E-02  head
 hed13          84.8800       5.060267E-02  head
 hed14          84.6200       3.206242E-02  head
 hed15          84.5100       0.104629      head
 hed16          84.4000       5.060267E-02  head
 hed17          84.0000       0.203521      head
 hed18          83.9000       2.007291E-03  head
 drnf0         -1376.69       9.066199E-04  drain
 drnf1         -1339.31       2.194389E-05  drain
 drnf2         -1552.78       5.098415E-04  drain
 drnf3         -1453.76       2.066849E-03  drain
 drnf4         -1427.59       1.881107E-03  drain
 drnf5         -1583.57       2.193688E-04  drain
 drnf6         -1467.16       1.993503E-03  drain
 drnf7         -1354.01       5.611824E-04  drain
 drnf8         -1431.11       1.923298E-03  drain
 drnf9         -1531.96       8.084766E-04  drain
 drnf10        -1473.10       1.917333E-03  drain
 drnf11        -1459.86       2.029218E-03  drain
 drnf12        -1474.74       1.879414E-03  drain
 drnf13        -1483.32       1.736445E-03  drain
 drnf14        -1384.43       1.039230E-03  drain
 drnf15        -1759.55       2.638404E-05  drain
 drnf16        -1363.13       6.811272E-04  drain
 drnf17        -1454.23       2.067228E-03  drain
 drnf18        -1373.27       8.550503E-04  drain
 drnf19        -1386.84       1.093742E-03  drain
 drnf20        -1498.16       1.443811E-03  drain
 drnf21        -1507.89       1.266410E-03  drain
 drnf22        -1483.70       1.736735E-03  drain
 ghbf0         -161.880       4.313155E-03  ghb
 ghbf1         -160.820       4.225804E-03  ghb
 ghbf2         -168.170       4.370081E-03  ghb
 ghbf3         -167.050       4.377099E-03  ghb
 ghbf4         -146.460       2.488891E-03  ghb
 ghbf5         -112.650       4.760219E-03  ghb
 ghbf6         -86.9100       4.748958E-05  ghb
 ghbf7         -109.300       4.680269E-03  ghb
 ghbf8         -125.520       4.093708E-03  ghb
 ghbf9         -125.140       4.096182E-03  ghb
 ghbf10        -126.500       4.002004E-03  ghb
 ghbf11        -139.250       2.631326E-03  ghb
 ghbf12        -171.230       4.071385E-03  ghb
 ghbf13        -218.160       1.557348E-04  ghb
 ghbf14        -218.520       3.890134E-05  ghb
 ghbf15        -140.930       2.453726E-03  ghb
 ghbf16        -88.2100       2.731632E-03  ghb
 ghbf17        -120.460       4.496776E-03  ghb
 ghbf18        -146.590       2.488406E-03  ghb
 ghbf19        -143.840       2.172116E-03  ghb
 ghbf20        -144.470       2.222996E-03  ghb
 strf0         -402.130       2.373344E-03  stream
 strf1         -385.440       3.060620E-03  stream
 strf2         -553.450       9.335831E-05  stream
 strf3         -466.640       1.742027E-03  stream
 strf4         -366.530       1.772557E-03  stream
 strf5         -412.460       2.325442E-03  stream
 strf6         -400.280       2.543195E-03  stream
 strf7         -390.340       3.037174E-03  stream
 strf8         -392.670       2.991315E-03  stream
 strf9         -376.140       2.607907E-03  stream
 strf10        -396.770       2.766504E-03  stream
 strf11        -393.820       2.935571E-03  stream
 strf12        -414.840       2.467260E-03  stream
 strf13        -393.030       2.928824E-03  stream
 strf14        -361.330       4.547906E-05  stream
 strf15        -446.360       3.240322E-03  stream
 strf16        -381.030       2.893289E-03  stream
 strf17        -409.030       2.003013E-03  stream
 strf18        -389.530       3.030095E-03  stream
 strf19        -387.930       3.082428E-03  stream
 strf20        -393.080       2.929152E-03  stream
 strf21        -412.930       2.328763E-03  stream
 strf22        -418.030       2.750719E-03  stream
 strf23        -424.620       3.225956E-03  stream
 strf24        -431.650       3.525446E-03  stream
 strf25        -381.950       2.965260E-03  stream
 strf26        -394.960       2.880087E-03  stream
 strf27        -401.970       2.372251E-03  stream
 strf28        -416.930       2.675910E-03  stream
 strf29        -435.540       3.571017E-03  stream
 chdf0          8.72000       1.255651E-03  const_head
 chdf1          20.9700       2.895044E-03  const_head
 chdf2          41.2500       9.076177E-04  const_head
 chdf3          38.6400       1.228525E-03  const_head
 chdf4          45.5000       2.843463E-05  const_head
 chdf5          33.3400       1.967378E-03  const_head
 chdf6          26.3600       2.883554E-03  const_head
 chdf7          1.28000       5.030715E-04  const_head
 chdf8         -17.7000       1.795372E-03  const_head
 chdf9         -27.7600       2.754927E-03  const_head
 chdf10        -38.1200       3.093445E-03  const_head
 chdf11        -42.7400       2.846321E-03  const_head
 chdf12        -23.6800       2.374191E-03  const_head
 chdf13        -10.7600       1.172404E-03  const_head
 chdf14        -43.2400       2.787785E-03  const_head
 chdf15        -54.5500       3.063854E-05  const_head
 chdf16        -53.9500       1.725867E-03  const_head
 chdf17        -44.4500       2.675573E-03  const_head
 chdf18        -45.6500       2.569032E-03  const_head
 chdf19        -11.7400       1.240822E-03  const_head
 chdf20         3.22000       6.535684E-04  const_head
* model command line
 A001_bat1.bat
* model input/output
 A001.tpl_1 A001.snn_1
 A001.ins A001._os
* prior information
 pi0 1.0 * log(sc1v1) - 1.0 * log(sc1v2) = 0.0 0.0333773437075 regul_1
 pi1 1.0 * log(sc1v1) - 1.0 * log(sc1v3) = 0.0 0.0016975975947 regul_1
 pi2 1.0 * log(sc1v1) - 1.0 * log(sc1v4) = 0.0 0.0338778130667 regul_1
 pi3 1.0 * log(sc1v1) - 1.0 * log(sc1v5) = 0.0 0.0100582542785 regul_1
 pi4 1.0 * log(sc1v1) - 1.0 * log(sc1v6) = 0.0 0.0006961932488 regul_1
 pi5 1.0 * log(sc1v1) - 1.0 * log(sc1v7) = 0.0 0.0017542869075 regul_1
 pi6 1.0 * log(sc1v1) - 1.0 * log(sc1v8) = 0.0 0.0007156496634 regul_1
 pi7 1.0 * log(sc1v1) - 1.0 * log(sc1v9) = 0.0 4.05096589e-024 regul_1
 pi8 1.0 * log(sc1v2) - 1.0 * log(sc1v3) = 0.0 0.0333773437067 regul_1
 pi9 1.0 * log(sc1v2) - 1.0 * log(sc1v4) = 0.0 0.0100582542785 regul_1
 pi10 1.0 * log(sc1v2) - 1.0 * log(sc1v5) = 0.0 0.0338778130667 regul_1
 pi11 1.0 * log(sc1v2) - 1.0 * log(sc1v6) = 0.0 0.0100582542784 regul_1
 pi12 1.0 * log(sc1v2) - 1.0 * log(sc1v7) = 0.0 0.0007156496633 regul_1
 pi13 1.0 * log(sc1v2) - 1.0 * log(sc1v8) = 0.0 0.0017542869078 regul_1
 pi14 1.0 * log(sc1v2) - 1.0 * log(sc1v9) = 0.0 0.0007156496634 regul_1
 pi15 1.0 * log(sc1v3) - 1.0 * log(sc1v4) = 0.0 0.0006961932488 regul_1
 pi16 1.0 * log(sc1v3) - 1.0 * log(sc1v5) = 0.0 0.0100582542784 regul_1
 pi17 1.0 * log(sc1v3) - 1.0 * log(sc1v6) = 0.0 0.0338778130639 regul_1
 pi18 1.0 * log(sc1v3) - 1.0 * log(sc1v7) = 0.0 0.0 regul_1
 pi19 1.0 * log(sc1v3) - 1.0 * log(sc1v8) = 0.0 0.0007156496634 regul_1
 pi20 1.0 * log(sc1v3) - 1.0 * log(sc1v9) = 0.0 0.0017542869078 regul_1
 pi21 1.0 * log(sc1v4) - 1.0 * log(sc1v5) = 0.0 0.0333773437073 regul_1
 pi22 1.0 * log(sc1v4) - 1.0 * log(sc1v6) = 0.0 0.0016975975948 regul_1
 pi23 1.0 * log(sc1v4) - 1.0 * log(sc1v7) = 0.0 0.0338778130583 regul_1
 pi24 1.0 * log(sc1v4) - 1.0 * log(sc1v8) = 0.0 0.0100582542784 regul_1
 pi25 1.0 * log(sc1v4) - 1.0 * log(sc1v9) = 0.0 0.0006961932489 regul_1
 pi26 1.0 * log(sc1v5) - 1.0 * log(sc1v6) = 0.0 0.0333773437068 regul_1
 pi27 1.0 * log(sc1v5) - 1.0 * log(sc1v7) = 0.0 0.0100582542765 regul_1
 pi28 1.0 * log(sc1v5) - 1.0 * log(sc1v8) = 0.0 0.0338778130666 regul_1
 pi29 1.0 * log(sc1v5) - 1.0 * log(sc1v9) = 0.0 0.0100582542785 regul_1
 pi30 1.0 * log(sc1v6) - 1.0 * log(sc1v7) = 0.0 0.0006961932488 regul_1
 pi31 1.0 * log(sc1v6) - 1.0 * log(sc1v8) = 0.0 0.0100582542783 regul_1
 pi32 1.0 * log(sc1v6) - 1.0 * log(sc1v9) = 0.0 0.0338778130658 regul_1
 pi33 1.0 * log(sc1v7) - 1.0 * log(sc1v8) = 0.0 0.0333773436947 regul_1
 pi34 1.0 * log(sc1v7) - 1.0 * log(sc1v9) = 0.0 0.0016975975944 regul_1
 pi35 1.0 * log(sc1v8) - 1.0 * log(sc1v9) = 0.0 0.0333773437074 regul_1
 pi36 1.0 * log(sc2v1) - 1.0 * log(sc2v2) = 0.0 0.0333773439008 regul_1
 pi37 1.0 * log(sc2v1) - 1.0 * log(sc2v3) = 0.0 0.0016975975948 regul_1
 pi38 1.0 * log(sc2v1) - 1.0 * log(sc2v4) = 0.0 0.0338778126045 regul_1
 pi39 1.0 * log(sc2v1) - 1.0 * log(sc2v5) = 0.0 0.0100582542445 regul_1
 pi40 1.0 * log(sc2v1) - 1.0 * log(sc2v6) = 0.0 0.0006961932553 regul_1
 pi41 1.0 * log(sc2v1) - 1.0 * log(sc2v7) = 0.0 0.0017542869263 regul_1
 pi42 1.0 * log(sc2v1) - 1.0 * log(sc2v8) = 0.0 0.0007156496616 regul_1
 pi43 1.0 * log(sc2v1) - 1.0 * log(sc2v9) = 0.0 2.27894412e-021 regul_1
 pi44 1.0 * log(sc2v2) - 1.0 * log(sc2v3) = 0.0 0.0333773436462 regul_1
 pi45 1.0 * log(sc2v2) - 1.0 * log(sc2v4) = 0.0 0.0100582542916 regul_1
 pi46 1.0 * log(sc2v2) - 1.0 * log(sc2v5) = 0.0 0.033877813029 regul_1
 pi47 1.0 * log(sc2v2) - 1.0 * log(sc2v6) = 0.0 0.0100582543538 regul_1
 pi48 1.0 * log(sc2v2) - 1.0 * log(sc2v7) = 0.0 0.0007156496716 regul_1
 pi49 1.0 * log(sc2v2) - 1.0 * log(sc2v8) = 0.0 0.0017542869132 regul_1
 pi50 1.0 * log(sc2v2) - 1.0 * log(sc2v9) = 0.0 0.0007156496713 regul_1
 pi51 1.0 * log(sc2v3) - 1.0 * log(sc2v4) = 0.0 0.0006961932578 regul_1
 pi52 1.0 * log(sc2v3) - 1.0 * log(sc2v5) = 0.0 0.0100582543614 regul_1
 pi53 1.0 * log(sc2v3) - 1.0 * log(sc2v6) = 0.0 0.0338778131882 regul_1
 pi54 1.0 * log(sc2v3) - 1.0 * log(sc2v7) = 0.0 0.0 regul_1
 pi55 1.0 * log(sc2v3) - 1.0 * log(sc2v8) = 0.0 0.0007156496724 regul_1
 pi56 1.0 * log(sc2v3) - 1.0 * log(sc2v9) = 0.0 0.0017542869245 regul_1
 pi57 1.0 * log(sc2v4) - 1.0 * log(sc2v5) = 0.0 0.033377343954 regul_1
 pi58 1.0 * log(sc2v4) - 1.0 * log(sc2v6) = 0.0 0.0016975976082 regul_1
 pi59 1.0 * log(sc2v4) - 1.0 * log(sc2v7) = 0.0 0.0338778125446 regul_1
 pi60 1.0 * log(sc2v4) - 1.0 * log(sc2v8) = 0.0 0.0100582543604 regul_1
 pi61 1.0 * log(sc2v4) - 1.0 * log(sc2v9) = 0.0 0.0006961932567 regul_1
 pi62 1.0 * log(sc2v5) - 1.0 * log(sc2v6) = 0.0 0.033377343845 regul_1
 pi63 1.0 * log(sc2v5) - 1.0 * log(sc2v7) = 0.0 0.0100582542339 regul_1
 pi64 1.0 * log(sc2v5) - 1.0 * log(sc2v8) = 0.0 0.0338778133016 regul_1
 pi65 1.0 * log(sc2v5) - 1.0 * log(sc2v9) = 0.0 0.0100582543515 regul_1
 pi66 1.0 * log(sc2v6) - 1.0 * log(sc2v7) = 0.0 0.0006961932549 regul_1
 pi67 1.0 * log(sc2v6) - 1.0 * log(sc2v8) = 0.0 0.0100582543177 regul_1
 pi68 1.0 * log(sc2v6) - 1.0 * log(sc2v9) = 0.0 0.0338778133083 regul_1
 pi69 1.0 * log(sc2v7) - 1.0 * log(sc2v8) = 0.0 0.0333773430649 regul_1
 pi70 1.0 * log(sc2v7) - 1.0 * log(sc2v9) = 0.0 0.0016975976032 regul_1
 pi71 1.0 * log(sc2v8) - 1.0 * log(sc2v9) = 0.0 0.0333773438264 regul_1
 pi72 1.0 * log(sc3v1) - 1.0 * log(sc3v2) = 0.0 0.0333773437033 regul_1
 pi73 1.0 * log(sc3v1) - 1.0 * log(sc3v3) = 0.0 0.0016975975943 regul_1
 pi74 1.0 * log(sc3v1) - 1.0 * log(sc3v4) = 0.0 0.0338778130642 regul_1
 pi75 1.0 * log(sc3v1) - 1.0 * log(sc3v5) = 0.0 0.0100582542776 regul_1
 pi76 1.0 * log(sc3v1) - 1.0 * log(sc3v6) = 0.0 0.0006961932488 regul_1
 pi77 1.0 * log(sc3v1) - 1.0 * log(sc3v7) = 0.0 0.0017542869077 regul_1
 pi78 1.0 * log(sc3v1) - 1.0 * log(sc3v8) = 0.0 0.0007156496633 regul_1
 pi79 1.0 * log(sc3v1) - 1.0 * log(sc3v9) = 0.0 2.08981382e-025 regul_1
 pi80 1.0 * log(sc3v2) - 1.0 * log(sc3v3) = 0.0 0.0333773437038 regul_1