                                  MODFLOW-2000
      U.S. GEOLOGICAL SURVEY MODULAR FINITE-DIFFERENCE GROUND-WATER FLOW MODEL
                           VERSION 1.19.01 03/25/2010


 This model run produced both GLOBAL and LIST files.  This is the GLOBAL file.

 GLOBAL LISTING FILE: "A001.glo"
                         UNIT  701

 OPENING "A001.out"
 FILE TYPE:LIST   UNIT  702   STATUS:REPLACE
 FORMAT:FORMATTED              ACCESS:SEQUENTIAL          

 OPENING "A001.hed"
 FILE TYPE:DATA(BINARY)   UNIT  730   STATUS:UNKNOWN
 FORMAT:BINARY                 ACCESS:SEQUENTIAL          

 OPENING "A001.ccf"
 FILE TYPE:DATA(BINARY)   UNIT  740   STATUS:UNKNOWN
 FORMAT:BINARY                 ACCESS:SEQUENTIAL          

 OPENING "A001.lmt"
 FILE TYPE:LMT6   UNIT  718   STATUS:OLD    
 FORMAT:FORMATTED              ACCESS:SEQUENTIAL          
#                                                                                                                                                                                                       
# Obs-Sen-Pes Process Input Files                                                                                                                                                                       

 OPENING "A001.obs"
 FILE TYPE:OBS   UNIT  750   STATUS:OLD    
 FORMAT:FORMATTED              ACCESS:SEQUENTIAL          

 OPENING "A001.hob"
 FILE TYPE:HOB   UNIT  751   STATUS:OLD    
 FORMAT:FORMATTED              ACCESS:SEQUENTIAL          

 OPENING "A001.gbob"
 FILE TYPE:GBOB   UNIT  753   STATUS:OLD    
 FORMAT:FORMATTED              ACCESS:SEQUENTIAL          

 OPENING "A001.drob"
 FILE TYPE:DROB   UNIT  754   STATUS:OLD    
 FORMAT:FORMATTED              ACCESS:SEQUENTIAL          

 OPENING "A001.chob"
 FILE TYPE:CHOB   UNIT  755   STATUS:OLD    
 FORMAT:FORMATTED              ACCESS:SEQUENTIAL          

 OPENING "A001.stob"
 FILE TYPE:STOB   UNIT  756   STATUS:OLD    
 FORMAT:FORMATTED              ACCESS:SEQUENTIAL          

 OPENING A001.snn_1
 FILE TYPE:SEN   UNIT  757   STATUS:OLD    
 FORMAT:FORMATTED              ACCESS:SEQUENTIAL          
#PES          758 "A001.pes"                                                                                                                                                                            
#ASP          771 "A001.asp"                                                                                                                                                                            
#                                                                                                                                                                                                       
# Global Input Files                                                                                                                                                                                    

 OPENING "A001.dis"
 FILE TYPE:DIS   UNIT  719   STATUS:OLD    
 FORMAT:FORMATTED              ACCESS:SEQUENTIAL          

 OPENING "A001.mlt"
 FILE TYPE:MULT   UNIT  721   STATUS:OLD    
 FORMAT:FORMATTED              ACCESS:SEQUENTIAL          
#                                                                                                                                                                                                       
# Flow Process Input Files                                                                                                                                                                              

 OPENING "A001.ba6"
 FILE TYPE:BAS6   UNIT  703   STATUS:OLD    
 FORMAT:FORMATTED              ACCESS:SEQUENTIAL          

 OPENING "A001.huf"
 FILE TYPE:HUF2   UNIT  704   STATUS:OLD    
 FORMAT:FORMATTED              ACCESS:SEQUENTIAL          

 OPENING "A001.oc"
 FILE TYPE:OC   UNIT  715   STATUS:OLD    
 FORMAT:FORMATTED              ACCESS:SEQUENTIAL          

 OPENING "A001.rch"
 FILE TYPE:RCH   UNIT  716   STATUS:OLD    
 FORMAT:FORMATTED              ACCESS:SEQUENTIAL          

 OPENING "A001.drn"
 FILE TYPE:DRN   UNIT  710   STATUS:OLD    
 FORMAT:FORMATTED              ACCESS:SEQUENTIAL          

 OPENING "A001.ghb"
 FILE TYPE:GHB   UNIT  711   STATUS:OLD    
 FORMAT:FORMATTED              ACCESS:SEQUENTIAL          

 OPENING "A001.evt"
 FILE TYPE:EVT   UNIT  712   STATUS:OLD    
 FORMAT:FORMATTED              ACCESS:SEQUENTIAL          

 OPENING "A001.str"
 FILE TYPE:STR   UNIT  717   STATUS:OLD    
 FORMAT:FORMATTED              ACCESS:SEQUENTIAL          

 OPENING "A001.chd"
 FILE TYPE:CHD   UNIT  713   STATUS:OLD    
 FORMAT:FORMATTED              ACCESS:SEQUENTIAL          

 OPENING "A001.pcg"
 FILE TYPE:PCG   UNIT  714   STATUS:OLD    
 FORMAT:FORMATTED              ACCESS:SEQUENTIAL          
# ASP data                                                                                                                                                                                              

 FILE TYPE:ASP: FILE = A001.asp_1

 THE FREE FORMAT OPTION HAS BEEN SELECTED

 DISCRETIZATION INPUT DATA READ FROM UNIT  719
 # MF2K DISCRETIZATION FILE
 #
 #
 # NLAY NROW NCOL NPER TIMEUNITS LENUNITS
    5 LAYERS        50 ROWS        50 COLUMNS
    1 STRESS PERIOD(S) IN SIMULATION
 MODEL TIME UNIT IS DAYS
 MODEL LENGTH UNIT IS METERS
 THE GROUND-WATER TRANSPORT PROCESS IS INACTIVE

 THE OBSERVATION PROCESS IS ACTIVE
 THE SENSITIVITY PROCESS IS ACTIVE
 THE PARAMETER-ESTIMATION PROCESS IS INACTIVE

 MODE: FORWARD WITH OBSERVATIONS AND PARAMETER-VALUE SUBSTITUTION


 MULTIPLIER OPTION, INPUT READ FROM UNIT  721
  12 MULTIPLIER ARRAYS
  Confining bed flag for each layer:
   0   0   0   0   0

     142600  ELEMENTS OF GX ARRAY USED OUT OF     142600
      12500  ELEMENTS OF GZ ARRAY USED OUT OF      12500
      12500  ELEMENTS OF IG ARRAY USED OUT OF      12500

 -------------------------------------------------------------------------------

 VARIABLES READ FROM ASP INPUT FILE:-

 NOSTOP = 1          : DO NOT CEASE EXECUTION IF MODFLOW FAILS TO CONVERGE.
 HYDRYBOT = 1        : ASSIGN CELL BOTTOM ELEVATION TO HEAD IN DRY CELLS.
 MINTHICK =     0.000: DO NOT PREVENT BASAL CELLS DRYING OUT.
 LIMOP = 0           : NO LIMITATIONS ON OBSERVATION OR SENSITIVITY OUTPUT.

 -------------------------------------------------------------------------------




                               DELR
 READING ON UNIT  719 WITH FORMAT: (FREE)              



                               DELC
 READING ON UNIT  719 WITH FORMAT: (FREE)              


 STRESS PERIOD     LENGTH       TIME STEPS     MULTIPLIER FOR DELT    SS FLAG
 ----------------------------------------------------------------------------
        1         1.000000          1                    1.000         SS

 STEADY-STATE SIMULATION




 HUF2 -- HYDROGEOLOGIC-UNIT FLOW PACKAGE, VERSION 2.0, 07/02/2003
 INPUT READ FROM UNIT704

 # Generated by GMS 10.0.11 (64-bit)
 # GMS_HGU_MAT_NUMUNITS 15
 # GMS_HGU_MAT unit_1 8
 # GMS_HGU_MAT unit_2 6
 # GMS_HGU_MAT unit_11 2
 # GMS_HGU_MAT unit_12 8
 # GMS_HGU_MAT unit_13 7
 # GMS_HGU_MAT unit_14 6
 # GMS_HGU_MAT unit_15 2
 # GMS_HGU_MAT unit_3 7
 # GMS_HGU_MAT unit_4 8
 # GMS_HGU_MAT unit_5 2
 # GMS_HGU_MAT unit_6 2
 # GMS_HGU_MAT unit_7 6
 # GMS_HGU_MAT unit_8 7
 # GMS_HGU_MAT unit_9 7
 # GMS_HGU_MAT unit_10 2
 CELL-BY-CELL FLOWS WILL BE SAVED ON UNIT740
 HEAD AT CELLS THAT CONVERT TO DRY=  -888.00    
 Hydrogeologic-Unit Flow Package Active with  15 units and  12 parameters

 IOHUFFLWS NOT FOUND AND WILL BE SET TO BE ZERO

    12 Named Parameters     
 STEADY-STATE SIMULATION

   INTERPRETATION OF LAYER FLAGS:
 LAYER     LTHUF    LAYER TYPE     LAYWT WETTABILITY
 ---------------------------------------------------------------------------
    1         1   CONVERTIBLE         1      WETTABLE
    2         2   CONVERTIBLE         2      WETTABLE
    3         3   CONVERTIBLE         3      WETTABLE
    4         4   CONVERTIBLE         4      WETTABLE
    5         5   CONVERTIBLE         5      WETTABLE

     162500 ELEMENTS IN X ARRAY ARE USED BY HUF
         75 ELEMENTS IN IX ARRAY ARE USED BY HUF

 PCG2 -- CONJUGATE GRADIENT SOLUTION PACKAGE, VERSION 2.4, 12/29/98
 MAXIMUM OF     15 CALLS OF SOLUTION ROUTINE
 MAXIMUM OF     50 INTERNAL ITERATIONS PER CALL TO SOLUTION ROUTINE
 MATRIX PRECONDITIONING TYPE :    1
      26500 ELEMENTS IN X ARRAY ARE USED BY PCG
       5250 ELEMENTS IN IX ARRAY ARE USED BY PCG
      50000 ELEMENTS IN Z ARRAY ARE USED BY PCG

 SEN1BAS6 -- SENSITIVITY PROCESS, VERSION 1.0, 10/15/98
 INPUT READ FROM UNIT  757

 NUMBER OF PARAMETER VALUES TO BE READ FROM SEN FILE:  156
 ISENALL............................................:   -1
 SENSITIVITY PROCESS HAS BEEN DEACTIVATED BECAUSE ISENALL<0

      13593 ELEMENTS IN X ARRAY ARE USED FOR SENSITIVITIES
      12500 ELEMENTS IN Z ARRAY ARE USED FOR SENSITIVITIES
        312 ELEMENTS IN IX ARRAY ARE USED FOR SENSITIVITIES

 OBS1BAS6 -- OBSERVATION PROCESS, VERSION 1.0, 4/27/99
 INPUT READ FROM UNIT 750
 OBSERVATION GRAPH-DATA OUTPUT FILES
 WILL BE PRINTED AND NAMED USING THE BASE: A001

 HEAD OBSERVATIONS -- INPUT READ FROM UNIT 751
 #           CoverageGUID ObjectType ID X Y Time OBNAME
 #GMSCOMMENT e7dafabf-cf9f-4334-a15a-80334dd15c71 POINT 1, 1573.28, 1465.81 ts_0 hed1
 #GMSCOMMENT e7dafabf-cf9f-4334-a15a-80334dd15c71 POINT 2, 2053.93, 8794.06 ts_0 hed2
 #GMSCOMMENT e7dafabf-cf9f-4334-a15a-80334dd15c71 POINT 3, 1320.75, 3418.55 ts_0 hed3
 #GMSCOMMENT e7dafabf-cf9f-4334-a15a-80334dd15c71 POINT 4, 2439.64, 3853.6 ts_0 hed4
 #GMSCOMMENT e7dafabf-cf9f-4334-a15a-80334dd15c71 POINT 5, 3502.49, 2209.4 ts_0 hed5
 #GMSCOMMENT e7dafabf-cf9f-4334-a15a-80334dd15c71 POINT 6, 4522.67, 3089.93 ts_0 hed6
 #GMSCOMMENT e7dafabf-cf9f-4334-a15a-80334dd15c71 POINT 7, 4463.68, 1768.35 ts_0 hed7
 #GMSCOMMENT e7dafabf-cf9f-4334-a15a-80334dd15c71 POINT 8, 4463.68, 1768.35 ts_0 hed8
 #GMSCOMMENT e7dafabf-cf9f-4334-a15a-80334dd15c71 POINT 9, 4072.36, 4092.39 ts_0 hed9
 #GMSCOMMENT e7dafabf-cf9f-4334-a15a-80334dd15c71 POINT 10, 5632.58, 9235.53 ts_0 hed10
 #GMSCOMMENT e7dafabf-cf9f-4334-a15a-80334dd15c71 POINT 11, 6422.39, 8616.94 ts_0 hed11
 #GMSCOMMENT e7dafabf-cf9f-4334-a15a-80334dd15c71 POINT 12, 7049.01, 7062.76 ts_0 hed12
 #GMSCOMMENT e7dafabf-cf9f-4334-a15a-80334dd15c71 POINT 13, 6793.1, 1729.74 ts_0 hed13
 #GMSCOMMENT e7dafabf-cf9f-4334-a15a-80334dd15c71 POINT 14, 7816.25, 5899.05 ts_0 hed14
 #GMSCOMMENT e7dafabf-cf9f-4334-a15a-80334dd15c71 POINT 15, 8300.41, 7956.62 ts_0 hed15
 #GMSCOMMENT e7dafabf-cf9f-4334-a15a-80334dd15c71 POINT 16, 8128.9355084217, 8858.6957179473 ts_0 hed16
 #GMSCOMMENT e7dafabf-cf9f-4334-a15a-80334dd15c71 POINT 17, 8065.3, 5172.5 ts_0 hed17
 #GMSCOMMENT e7dafabf-cf9f-4334-a15a-80334dd15c71 POINT 18, 7365.3, 4972.5 ts_0 hed18

 NUMBER OF HEADS....................................:   18
   NUMBER OF MULTILAYER HEADS.......................:    0
   MAXIMUM NUMBER OF LAYERS FOR MULTILAYER HEADS....:    5

 OBS1DRN6 -- OBSERVATION PROCESS (DRAIN FLOW OBSERVATIONS)
 VERSION 1.0, 10/15/98
 INPUT READ FROM UNIT  754
 #           CoverageGUID ObjectType ID X Y Time OBNAME
 #GMSCOMMENT 83a6a6a4-c117-4ff1-a155-0c6db338b1e9 POLY 1 9441.8786421512 7850.9653663971 1.0 drnf0
 #GMSCOMMENT 83a6a6a4-c117-4ff1-a155-0c6db338b1e9 POLY 10 8665.5609122369 5449.3078169354 1.0 drnf1
 #GMSCOMMENT 83a6a6a4-c117-4ff1-a155-0c6db338b1e9 POLY 11 8754.1999284166 5845.594555227 1.0 drnf2
 #GMSCOMMENT 83a6a6a4-c117-4ff1-a155-0c6db338b1e9 POLY 12 8661.6041076626 5013.7330488935 1.0 drnf3
 #GMSCOMMENT 83a6a6a4-c117-4ff1-a155-0c6db338b1e9 POLY 13 8648.2766465478 4517.3071967267 1.0 drnf4
 #GMSCOMMENT 83a6a6a4-c117-4ff1-a155-0c6db338b1e9 POLY 14 8592.6140889122 4135.4262596689 1.0 drnf5
 #GMSCOMMENT 83a6a6a4-c117-4ff1-a155-0c6db338b1e9 POLY 15 8463.5516739563 3382.0377782426 1.0 drnf6
 #GMSCOMMENT 83a6a6a4-c117-4ff1-a155-0c6db338b1e9 POLY 16 8505.5058253673 3799.3227308487 1.0 drnf7
 #GMSCOMMENT 83a6a6a4-c117-4ff1-a155-0c6db338b1e9 POLY 17 8378.1439530368 3052.3341009202 1.0 drnf8
 #GMSCOMMENT 83a6a6a4-c117-4ff1-a155-0c6db338b1e9 POLY 18 8213.1241360499 2683.0603053635 1.0 drnf9
 #GMSCOMMENT 83a6a6a4-c117-4ff1-a155-0c6db338b1e9 POLY 19 8011.9615209157 2209.5976917376 1.0 drnf10
 #GMSCOMMENT 83a6a6a4-c117-4ff1-a155-0c6db338b1e9 POLY 2 9446.4588094764 7368.4208264562 1.0 drnf11
 #GMSCOMMENT 83a6a6a4-c117-4ff1-a155-0c6db338b1e9 POLY 20 7806.4379127956 1802.1495592482 1.0 drnf12
 #GMSCOMMENT 83a6a6a4-c117-4ff1-a155-0c6db338b1e9 POLY 21 7699.8690747439 446.5653366595 1.0 drnf13
 #GMSCOMMENT 83a6a6a4-c117-4ff1-a155-0c6db338b1e9 POLY 22 7701.4185512006 880.82100647396 1.0 drnf14
 #GMSCOMMENT 83a6a6a4-c117-4ff1-a155-0c6db338b1e9 POLY 23 7706.5153346586 1377.5052116045 1.0 drnf15
 #GMSCOMMENT 83a6a6a4-c117-4ff1-a155-0c6db338b1e9 POLY 3 9317.097857898 6964.7237062393 1.0 drnf16
 #GMSCOMMENT 83a6a6a4-c117-4ff1-a155-0c6db338b1e9 POLY 4 9273.257238781 9159.4781189738 1.0 drnf17
 #GMSCOMMENT 83a6a6a4-c117-4ff1-a155-0c6db338b1e9 POLY 5 9389.603947553 9614.2164663684 1.0 drnf18
 #GMSCOMMENT 83a6a6a4-c117-4ff1-a155-0c6db338b1e9 POLY 6 9240.7266443216 8685.2290146002 1.0 drnf19
 #GMSCOMMENT 83a6a6a4-c117-4ff1-a155-0c6db338b1e9 POLY 7 9336.5077253335 8319.9282502608 1.0 drnf20
 #GMSCOMMENT 83a6a6a4-c117-4ff1-a155-0c6db338b1e9 POLY 8 9207.63375179 6648.4946373112 1.0 drnf21
 #GMSCOMMENT 83a6a6a4-c117-4ff1-a155-0c6db338b1e9 POLY 9 9010.1307251567 6261.9601696876 1.0 drnf22

 NUMBER OF FLOW-OBSERVATION DRAIN-CELL GROUPS.....:     23
   NUMBER OF CELLS IN DRAIN-CELL GROUPS...........:    175
   NUMBER OF DRAIN-CELL FLOWS.....................:     23

 OBS1GHB6 -- OBSERVATION PROCESS (GENERAL HEAD BOUNDARY FLOW OBSERVATIONS)
 VERSION 1.0, 10/15/98
 INPUT READ FROM UNIT  753
 #           CoverageGUID ObjectType ID X Y Time OBNAME
 #GMSCOMMENT 3689debb-0f01-404d-8a37-155443ff0163 ARC 10 5135.6501491474 9670.1723592943 1.0 ghbf0
 #GMSCOMMENT 3689debb-0f01-404d-8a37-155443ff0163 ARC 11 5878.5141469255 9672.4651494109 1.0 ghbf1
 #GMSCOMMENT 3689debb-0f01-404d-8a37-155443ff0163 ARC 12 6625.9637249368 9681.6363098773 1.0 ghbf2
 #GMSCOMMENT 3689debb-0f01-404d-8a37-155443ff0163 ARC 13 7410.0979448136 9690.8074703437 1.0 ghbf3
 #GMSCOMMENT 3689debb-0f01-404d-8a37-155443ff0163 ARC 14 8196.5249548071 9697.6858406935 1.0 ghbf4
 #GMSCOMMENT 3689debb-0f01-404d-8a37-155443ff0163 ARC 15 8883.2427842156 9697.5169619414 1.0 ghbf5
 #GMSCOMMENT 3689debb-0f01-404d-8a37-155443ff0163 ARC 22 879.72425723537 318.69186045393 1.0 ghbf6
 #GMSCOMMENT 3689debb-0f01-404d-8a37-155443ff0163 ARC 23 1641.2864233179 322.38161430366 1.0 ghbf7
 #GMSCOMMENT 3689debb-0f01-404d-8a37-155443ff0163 ARC 24 2405.8207999129 325.87263885433 1.0 ghbf8
 #GMSCOMMENT 3689debb-0f01-404d-8a37-155443ff0163 ARC 25 3100.5346854946 315.39956520234 1.0 ghbf9
 #GMSCOMMENT 3689debb-0f01-404d-8a37-155443ff0163 ARC 26 3676.5537363539 308.41751610102 1.0 ghbf10
 #GMSCOMMENT 3689debb-0f01-404d-8a37-155443ff0163 ARC 27 4242.0997135611 311.90854065168 1.0 ghbf11
 #GMSCOMMENT 3689debb-0f01-404d-8a37-155443ff0163 ARC 28 4814.6277398697 315.39956520234 1.0 ghbf12
 #GMSCOMMENT 3689debb-0f01-404d-8a37-155443ff0163 ARC 29 5481.4134290461 322.38161430366 1.0 ghbf13
 #GMSCOMMENT 3689debb-0f01-404d-8a37-155443ff0163 ARC 30 6245.9478056411 325.87263885433 1.0 ghbf14
 #GMSCOMMENT 3689debb-0f01-404d-8a37-155443ff0163 ARC 31 7029.7644048299 314.3938261266 1.0 ghbf15
 #GMSCOMMENT 3689debb-0f01-404d-8a37-155443ff0163 ARC 5 875.89132351675 9698.5681782972 1.0 ghbf16
 #GMSCOMMENT 3689debb-0f01-404d-8a37-155443ff0163 ARC 6 1663.6615635928 9694.0673042176 1.0 ghbf17
 #GMSCOMMENT 3689debb-0f01-404d-8a37-155443ff0163 ARC 7 2518.1832364493 9675.5445409882 1.0 ghbf18
 #GMSCOMMENT 3689debb-0f01-404d-8a37-155443ff0163 ARC 8 3467.4841330301 9664.5591273541 1.0 ghbf19
 #GMSCOMMENT 3689debb-0f01-404d-8a37-155443ff0163 ARC 9 4351.5159292705 9667.8795691777 1.0 ghbf20

 NUMBER OF FLOW-OBSERVATION GENERAL-HEAD-CELL GROUPS:     21
   NUMBER OF CELLS IN GENERAL-HEAD-CELL GROUPS......:    510
   NUMBER OF GENERAL-HEAD-CELL FLOWS................:     21

 OBS1STR6 -- OBSERVATION PROCESS (STREAMFLOW-ROUTING FLOW OBSERVATIONS)
 VERSION 1.0, 10/15/98
 INPUT READ FROM UNIT  756
 #           CoverageGUID ObjectType ID X Y Time OBNAME
 #GMSCOMMENT a4955ecc-548c-4b5b-9d20-59c252cfb6fc ARC 10 4518.2031848371 5274.2466703314 1.0 strf0
 #GMSCOMMENT a4955ecc-548c-4b5b-9d20-59c252cfb6fc ARC 11 4947.2634549374 5121.9522399886 1.0 strf1
 #GMSCOMMENT a4955ecc-548c-4b5b-9d20-59c252cfb6fc ARC 12 5513.9744601552 4801.2553145553 1.0 strf2
 #GMSCOMMENT a4955ecc-548c-4b5b-9d20-59c252cfb6fc ARC 13 6022.1106844719 4812.9702707355 1.0 strf3
 #GMSCOMMENT a4955ecc-548c-4b5b-9d20-59c252cfb6fc ARC 14 6204.9361244827 5218.2585849135 1.0 strf4
 #GMSCOMMENT a4955ecc-548c-4b5b-9d20-59c252cfb6fc ARC 15 6323.7802881327 5163.747453765 1.0 strf5
 #GMSCOMMENT a4955ecc-548c-4b5b-9d20-59c252cfb6fc ARC 16 6440.8741391194 4932.5621582273 1.0 strf6
 #GMSCOMMENT a4955ecc-548c-4b5b-9d20-59c252cfb6fc ARC 17 6565.9744072675 4754.4193763843 1.0 strf7
 #GMSCOMMENT a4955ecc-548c-4b5b-9d20-59c252cfb6fc ARC 18 6755.1260127075 4804.4594836436 1.0 strf8
 #GMSCOMMENT a4955ecc-548c-4b5b-9d20-59c252cfb6fc ARC 19 6936.2712009859 4929.5597517917 1.0 strf9
 #GMSCOMMENT a4955ecc-548c-4b5b-9d20-59c252cfb6fc ARC 20 7134.4300257326 4955.5806075665 1.0 strf10
 #GMSCOMMENT a4955ecc-548c-4b5b-9d20-59c252cfb6fc ARC 21 7362.4517740834 4935.6787184415 1.0 strf11
 #GMSCOMMENT a4955ecc-548c-4b5b-9d20-59c252cfb6fc ARC 22 7616.094779795 4931.4038105145 1.0 strf12
 #GMSCOMMENT a4955ecc-548c-4b5b-9d20-59c252cfb6fc ARC 23 7858.9573044333 4914.5090261919 1.0 strf13
 #GMSCOMMENT a4955ecc-548c-4b5b-9d20-59c252cfb6fc ARC 24 8183.9185893057 4904.5686443723 1.0 strf14
 #GMSCOMMENT a4955ecc-548c-4b5b-9d20-59c252cfb6fc ARC 25 1562.26626143 4334.686967102 1.0 strf15
 #GMSCOMMENT a4955ecc-548c-4b5b-9d20-59c252cfb6fc ARC 26 2050.374550232 4359.5603849824 1.0 strf16
 #GMSCOMMENT a4955ecc-548c-4b5b-9d20-59c252cfb6fc ARC 27 2493.4461022868 4493.780757429 1.0 strf17
 #GMSCOMMENT a4955ecc-548c-4b5b-9d20-59c252cfb6fc ARC 28 2939.4041139642 4607.795912518 1.0 strf18
 #GMSCOMMENT a4955ecc-548c-4b5b-9d20-59c252cfb6fc ARC 29 3449.6817216925 4547.3391008863 1.0 strf19
 #GMSCOMMENT a4955ecc-548c-4b5b-9d20-59c252cfb6fc ARC 30 3992.1146108141 4448.4319772723 1.0 strf20
 #GMSCOMMENT a4955ecc-548c-4b5b-9d20-59c252cfb6fc ARC 31 4525.0612435523 4367.9230178586 1.0 strf21
 #GMSCOMMENT a4955ecc-548c-4b5b-9d20-59c252cfb6fc ARC 32 5004.7132130166 4454.1016223014 1.0 strf22
 #GMSCOMMENT a4955ecc-548c-4b5b-9d20-59c252cfb6fc ARC 33 5386.84728798 4624.1909731753 1.0 strf23
 #GMSCOMMENT a4955ecc-548c-4b5b-9d20-59c252cfb6fc ARC 4 1559.6367338825 5879.856118497 1.0 strf24
 #GMSCOMMENT a4955ecc-548c-4b5b-9d20-59c252cfb6fc ARC 5 1880.020897286 5813.9195360551 1.0 strf25
 #GMSCOMMENT a4955ecc-548c-4b5b-9d20-59c252cfb6fc ARC 6 2207.1677870937 5717.5506847939 1.0 strf26
 #GMSCOMMENT a4955ecc-548c-4b5b-9d20-59c252cfb6fc ARC 7 2523.3252464945 5551.0185470881 1.0 strf27
 #GMSCOMMENT a4955ecc-548c-4b5b-9d20-59c252cfb6fc ARC 8 3078.231666375 5359.974193275 1.0 strf28
 #GMSCOMMENT a4955ecc-548c-4b5b-9d20-59c252cfb6fc ARC 9 3901.4306159512 5407.2769880439 1.0 strf29

 NUMBER OF FLOW-OBSERVATION STREAM-REACH GROUPS...:     30
   NUMBER OF CELLS IN STREAM-REACH GROUPS.........:    109
   NUMBER OF STREAM-REACH FLOWS...................:     30

 OBS1BAS6F -- OBSERVATION PROCESS (CONSTANT-HEAD BOUNDARY FLOW OBSERVATIONS)
 VERSION 1.0, 12/03/99
 INPUT READ FROM UNIT 755
 #           CoverageGUID ObjectType ID X Y Time OBNAME
 #GMSCOMMENT 8717f744-f0a8-4a97-b3ed-2b392430b3b6 ARC 10 362.7076697759 6234.8481640641 1.0 chdf0
 #GMSCOMMENT 8717f744-f0a8-4a97-b3ed-2b392430b3b6 ARC 11 347.43238893091 5836.5794166545 1.0 chdf1
 #GMSCOMMENT 8717f744-f0a8-4a97-b3ed-2b392430b3b6 ARC 12 343.16000589155 5396.5239635997 1.0 chdf2
 #GMSCOMMENT 8717f744-f0a8-4a97-b3ed-2b392430b3b6 ARC 13 348.8565166107 4946.4996167863 1.0 chdf3
 #GMSCOMMENT 8717f744-f0a8-4a97-b3ed-2b392430b3b6 ARC 14 336.92225144361 4551.6968658754 1.0 chdf4
 #GMSCOMMENT 8717f744-f0a8-4a97-b3ed-2b392430b3b6 ARC 15 318.14310230139 4125.2497335365 1.0 chdf5
 #GMSCOMMENT 8717f744-f0a8-4a97-b3ed-2b392430b3b6 ARC 16 314.8563063415 3676.8330683569 1.0 chdf6
 #GMSCOMMENT 8717f744-f0a8-4a97-b3ed-2b392430b3b6 ARC 17 314.22963731665 3258.8457733759 1.0 chdf7
 #GMSCOMMENT 8717f744-f0a8-4a97-b3ed-2b392430b3b6 ARC 18 316.61998767652 2839.5110488668 1.0 chdf8
 #GMSCOMMENT 8717f744-f0a8-4a97-b3ed-2b392430b3b6 ARC 19 315.80890799761 2423.0378291276 1.0 chdf9
 #GMSCOMMENT 8717f744-f0a8-4a97-b3ed-2b392430b3b6 ARC 20 314.38840846167 2001.4566961574 1.0 chdf10
 #GMSCOMMENT 8717f744-f0a8-4a97-b3ed-2b392430b3b6 ARC 21 317.36892262827 1509.0543856094 1.0 chdf11
 #GMSCOMMENT 8717f744-f0a8-4a97-b3ed-2b392430b3b6 ARC 22 318.00415071069 999.02888212442 1.0 chdf12
 #GMSCOMMENT 8717f744-f0a8-4a97-b3ed-2b392430b3b6 ARC 23 316.9897352 559.79529059103 1.0 chdf13
 #GMSCOMMENT 8717f744-f0a8-4a97-b3ed-2b392430b3b6 ARC 3 360.04511078623 9427.3275229243 1.0 chdf14
 #GMSCOMMENT 8717f744-f0a8-4a97-b3ed-2b392430b3b6 ARC 4 364.60026305133 8967.2571441496 1.0 chdf15
 #GMSCOMMENT 8717f744-f0a8-4a97-b3ed-2b392430b3b6 ARC 5 355.48995852113 8482.1334279168 1.0 chdf16
 #GMSCOMMENT 8717f744-f0a8-4a97-b3ed-2b392430b3b6 ARC 6 348.65723012349 8049.3939627327 1.0 chdf17
 #GMSCOMMENT 8717f744-f0a8-4a97-b3ed-2b392430b3b6 ARC 7 350.93480625604 7596.1563123556 1.0 chdf18
 #GMSCOMMENT 8717f744-f0a8-4a97-b3ed-2b392430b3b6 ARC 8 353.21238238858 7099.6447154601 1.0 chdf19
 #GMSCOMMENT 8717f744-f0a8-4a97-b3ed-2b392430b3b6 ARC 9 364.60026305133 6644.1294889505 1.0 chdf20

 NUMBER OF FLOW-OBSERVATION CONSTANT-HEAD-CELL GROUPS:   21
   NUMBER OF CELLS IN CONSTANT-HEAD-CELL GROUPS......:  350
   NUMBER OF CONSTANT-HEAD-CELL FLOWS................:   21

      78739 ELEMENTS IN X ARRAY ARE USED FOR OBSERVATIONS
       9312 ELEMENTS IN Z ARRAY ARE USED FOR OBSERVATIONS
        943 ELEMENTS IN IX ARRAY ARE USED FOR OBSERVATIONS

 COMMON ERROR VARIANCE FOR ALL OBSERVATIONS SET TO:       1.000    

     281332  ELEMENTS OF X ARRAY USED OUT OF     281332
      71812  ELEMENTS OF Z ARRAY USED OUT OF      71812
       6580  ELEMENTS OF IX ARRAY USED OUT OF       6580
          0  ELEMENTS OF XHS ARRAY USED OUT OF          1

 INFORMATION ON PARAMETERS LISTED IN SEN FILE
                                         LOWER         UPPER       ALTERNATE
                        VALUE IN SEN   REASONABLE    REASONABLE     SCALING
    NAME     ISENS  LN   INPUT FILE      LIMIT         LIMIT         FACTOR
 ----------  -----  --  ------------  ------------  ------------  ------------
 HANI_111      1     0   0.98148       0.49000        1.9600        1.0000    
 HANI_112      1     0    1.0334       0.52000        2.0700        1.0000    
 HANI_113      1     0    1.0711       0.54000        2.1400        1.0000    
 HANI_114      1     0    1.1254       0.56000        2.2500        1.0000    
 VANI_121      1     0   0.20900E-01   0.10000E-01   0.42000E-01    1.0000    
 VANI_122      1     0   0.12885E-01   0.60000E-02   0.26000E-01    1.0000    
 VANI_123      1     0   0.30345E-01   0.15000E-01   0.61000E-01    1.0000    
 VANI_124      1     0   0.14993       0.75000E-01   0.30000        1.0000    
 DRN_1401      1     0   0.50638       0.37780       0.75673        1.0000    
 DRN_1402      1     0   0.71965       0.53776       0.93954        1.0000    
 DRN_1403      1     0   0.46817       0.34915       0.72398        1.0000    
 DRN_1404      1     0   0.59232       0.44226       0.83040        1.0000    
 DRN_1405      1     0   0.60762       0.45373       0.84351        1.0000    
 DRN_1406      1     0   0.50476       0.37659       0.75535        1.0000    
 DRN_1407      1     0   0.44964       0.33525       0.70810        1.0000    
 DRN_1408      1     0   0.53307       0.39782       0.77961        1.0000    
 DRN_1409      1     0   0.62460       0.46647       0.85807        1.0000    
 DRN_1410      1     0   0.55460       0.41397       0.79807        1.0000    
 DRN_1411      1     0   0.50833       0.37927       0.75840        1.0000    
 DRN_1412      1     0   0.54740       0.40857       0.79190        1.0000    
 DRN_1413      1     0   0.56280       0.42012       0.80510        1.0000    
 DRN_1414      1     0   0.44844       0.33435       0.70707        1.0000    
 DRN_1415      1     0   0.53656       0.40044       0.78260        1.0000    
 DRN_1416      1     0   0.56156       0.41919       0.80403        1.0000    
 DRN_1417      1     0   0.66814       0.49913       0.89539        1.0000    
 DRN_1418      1     0   0.47307       0.35282       0.72818        1.0000    
 DRN_1419      1     0   0.60232       0.44976       0.83897        1.0000    
 DRN_1420      1     0   0.51187       0.38192       0.76144        1.0000    
 DRN_1421      1     0   0.50035       0.37328       0.75157        1.0000    
 DRN_1422      1     0   0.59749       0.44614       0.83482        1.0000    
 DRN_1423      1     0   0.49297       0.36775       0.74524        1.0000    
 GHB_1101      1     1   0.74144E-02   0.66746E-02   0.78527E-02    1.0000    
 GHB_1102      1     1   0.83996E-02   0.75777E-02   0.88380E-02    1.0000    
 GHB_1103      1     1   0.75411E-02   0.67907E-02   0.79794E-02    1.0000    
 GHB_1104      1     1   0.68732E-02   0.61784E-02   0.73115E-02    1.0000    
 GHB_1105      1     1   0.67527E-02   0.60680E-02   0.71911E-02    1.0000    
 GHB_1106      1     1   0.63698E-02   0.57170E-02   0.68081E-02    1.0000    
 GHB_1107      1     1   0.60067E-02   0.53842E-02   0.64451E-02    1.0000    
 GHB_1108      1     1   0.56850E-02   0.50893E-02   0.61233E-02    1.0000    
 GHB_1109      1     1   0.53642E-02   0.47953E-02   0.58026E-02    1.0000    
 GHB_1110      1     1   0.50684E-02   0.45241E-02   0.55068E-02    1.0000    
 GHB_1111      1     1   0.60728E-02   0.54448E-02   0.65112E-02    1.0000    
 GHB_1112      1     1   0.71182E-02   0.64030E-02   0.75565E-02    1.0000    
 GHB_1113      1     1   0.83317E-02   0.75155E-02   0.87701E-02    1.0000    
 GHB_1114      1     1   0.70181E-02   0.63113E-02   0.74565E-02    1.0000    
 GHB_1115      1     1   0.85908E-02   0.77529E-02   0.90291E-02    1.0000    
 GHB_1116      1     1   0.73553E-02   0.66203E-02   0.77936E-02    1.0000    
 GHB_1117      1     1   0.64696E-02   0.58084E-02   0.69079E-02    1.0000    
 GHB_1118      1     1   0.78831E-02   0.71042E-02   0.83214E-02    1.0000    
 GHB_1119      1     1   0.82533E-02   0.74435E-02   0.86916E-02    1.0000    
 GHB_1120      1     1   0.75797E-02   0.68261E-02   0.80180E-02    1.0000    
 GHB_1121      1     1   0.54446E-02   0.48689E-02   0.58829E-02    1.0000    
 STR_1201      1     0    1.2797        1.1735        1.3854        1.0000    
 STR_1222      1     0    1.2844        1.1779        1.3891        1.0000    
 STR_1202      1     0   0.99737       0.91475        1.1636        1.0000    
 STR_1223      1     0    1.2670        1.1619        1.3754        1.0000    
 STR_1203      1     0    1.2910        1.1839        1.3943        1.0000    
 STR_1224      1     0    1.2876        1.1808        1.3916        1.0000    
 STR_1204      1     0    1.3340        1.2233        1.4281        1.0000    
 STR_1225      1     0    1.3282        1.2180        1.4236        1.0000    
 STR_1205      1     0   0.79526       0.72949        1.0048        1.0000    
 STR_1226      1     0    1.3155        1.2064        1.4136        1.0000    
 STR_1206      1     0    1.2695        1.1642        1.3774        1.0000    
 STR_1227      1     0    1.4075        1.2907        1.4858        1.0000    
 STR_1207      1     0    1.3304        1.2200        1.4253        1.0000    
 STR_1228      1     0    1.1111        1.0190        1.2529        1.0000    
 STR_1208      1     0    1.1911        1.0924        1.3159        1.0000    
 STR_1229      1     0    1.4888        1.3652        1.5497        1.0000    
 STR_1230      1     0    1.2810        1.1747        1.3864        1.0000    
 STR_1209      1     0    1.4167        1.2991        1.4931        1.0000    
 STR_1210      1     0   0.80920       0.74226        1.0158        1.0000    
 STR_1211      1     0   0.96681       0.88674        1.1396        1.0000    
 STR_1212      1     0    1.2913        1.1842        1.3946        1.0000    
 STR_1213      1     0   0.96668       0.88662        1.1395        1.0000    
 STR_1214      1     0    1.2781        1.1720        1.3841        1.0000    
 STR_1215      1     0    1.1577        1.0617        1.2896        1.0000    
 STR_1216      1     0    1.1318        1.0380        1.2692        1.0000    
 STR_1217      1     0    1.1106        1.0185        1.2526        1.0000    
 STR_1218      1     0    1.1004        1.0092        1.2446        1.0000    
 STR_1219      1     0   0.96488       0.88497        1.1381        1.0000    
 STR_1220      1     0   0.97324       0.89264        1.1446        1.0000    
 STR_1221      1     0   0.96084       0.88127        1.1349        1.0000    
 sc1v1         1     1   0.99039E-01   0.52735E-01   0.18236        1.0000    
 sc1v2         1     1   0.99835E-01   0.52735E-01   0.18236        1.0000    
 sc1v3         1     1   0.11197       0.52735E-01   0.18236        1.0000    
 sc1v4         1     1   0.95080E-01   0.52735E-01   0.18236        1.0000    
 sc1v5         1     1   0.10028       0.52735E-01   0.18236        1.0000    
 sc1v6         1     1   0.88508E-01   0.52735E-01   0.18236        1.0000    
 sc1v7         1     1   0.54669E-01   0.52735E-01   0.18236        1.0000    
 sc1v8         1     1   0.10490       0.52735E-01   0.18236        1.0000    
 sc1v9         1     1   0.10172       0.52735E-01   0.18236        1.0000    
 sc2v1         1     1   0.35606       0.28889       0.93615        1.0000    