pcf
* control data
restart regularisation
     12    577      1      0      8  
    1    2 double point  1    0  0
   1.0000       -2.0000      0.3  0.03  10
    200.000  10.0  0.001
 0.1
3 0.005  4  4  0.005  4
1  1  1  1 nojcosaveitn noreisaveitn
* singular value decomposition
     1
    12  1.0000000E-07
     0
* svd assist
A003.pst
A003.jco
    0    3    0    1    0
* parameter groups
 pargp absolute    0.015  0.0  switch    2.0 parabolic
* parameter data
par1         none  relative   1.0000     1.0e-20  1.0e20  pargp  1.0  -1.0000      1
par2         none  relative   1.0000     1.0e-20  1.0e20  pargp  1.0  -1.0000      1
par3         none  relative   1.0000     1.0e-20  1.0e20  pargp  1.0  -1.0000      1
par4         none  relative   1.0000     1.0e-20  1.0e20  pargp  1.0  -1.0000      1
par5         none  relative   1.0000     1.0e-20  1.0e20  pargp  1.0  -1.0000      1
par6         none  relative   1.0000     1.0e-20  1.0e20  pargp  1.0  -1.0000      1
par7         none  relative   1.0000     1.0e-20  1.0e20  pargp  1.0  -1.0000      1
par8         none  relative   1.0000     1.0e-20  1.0e20  pargp  1.0  -1.0000      1
par9         none  relative   1.0000     1.0e-20  1.0e20  pargp  1.0  -1.0000      1
par10        none  relative   1.0000     1.0e-20  1.0e20  pargp  1.0  -1.0000      1
par11        none  relative   1.0000     1.0e-20  1.0e20  pargp  1.0  -1.0000      1
par12        none  relative   1.0000     1.0e-20  1.0e20  pargp  1.0  -1.0000      1
* observation groups
 head
 drain
 ghb
 stream
 const_head
 regul_1
 regul_2
 regul_3
* observation data
 hed1           93.2700       1.850472E-03  head
 hed2           92.6500       0.252284      head
 hed3           92.2800       0.269621      head
 hed4           90.8000       9.726468E-02  head
 hed5           89.1600       0.266813      head
 hed6           88.8500       0.278389      head
 hed7           88.3200       0.288973      head
 hed8           88.1700       0.288973      head
 hed9           88.0500       0.210831      head
 hed10          87.8000       0.198517      head
 hed11          87.7900       0.291341      head
 hed12          85.5200       1.978980E-02  head
 hed13          84.8800       5.060267E-02  head
 hed14          84.6200       3.206242E-02  head
 hed15          84.5100       0.104629      head
 hed16          84.4000       5.060267E-02  head
 hed17          84.0000       0.203521      head
 hed18          83.9000       2.007291E-03  head
 drnf0         -1376.69       9.066199E-04  drain
 drnf1         -1339.31       2.194389E-05  drain
 drnf2         -1552.78       5.098415E-04  drain
 drnf3         -1453.76       2.066849E-03  drain
 drnf4         -1427.59       1.881107E-03  drain
 drnf5         -1583.57       2.193688E-04  drain
 drnf6         -1467.16       1.993503E-03  drain
 drnf7         -1354.01       5.611824E-04  drain
 drnf8         -1431.11       1.923298E-03  drain
 drnf9         -1531.96       8.084766E-04  drain
 drnf10        -1473.10       1.917333E-03  drain
 drnf11        -1459.86       2.029218E-03  drain
 drnf12        -1474.74       1.879414E-03  drain
 drnf13        -1483.32       1.736445E-03  drain
 drnf14        -1384.43       1.039230E-03  drain
 drnf15        -1759.55       2.638404E-05  drain
 drnf16        -1363.13       6.811272E-04  drain
 drnf17        -1454.23       2.067228E-03  drain
 drnf18        -1373.27       8.550503E-04  drain
 drnf19        -1386.84       1.093742E-03  drain
 drnf20        -1498.16       1.443811E-03  drain
 drnf21        -1507.89       1.266410E-03  drain
 drnf22        -1483.70       1.736735E-03  drain
 ghbf0         -161.880       4.313155E-03  ghb
 ghbf1         -160.820       4.225804E-03  ghb
 ghbf2         -168.170       4.370081E-03  ghb
 ghbf3         -167.050       4.377099E-03  ghb
 ghbf4         -146.460       2.488891E-03  ghb
 ghbf5         -112.650       4.760219E-03  ghb
 ghbf6         -86.9100       4.748958E-05  ghb
 ghbf7         -109.300       4.680269E-03  ghb
 ghbf8         -125.520       4.093708E-03  ghb
 ghbf9         -125.140       4.096182E-03  ghb
 ghbf10        -126.500       4.002004E-03  ghb
 ghbf11        -139.250       2.631326E-03  ghb
 ghbf12        -171.230       4.071385E-03  ghb
 ghbf13        -218.160       1.557348E-04  ghb
 ghbf14        -218.520       3.890134E-05  ghb
 ghbf15        -140.930       2.453726E-03  ghb
 ghbf16        -88.2100       2.731632E-03  ghb
 ghbf17        -120.460       4.496776E-03  ghb
 ghbf18        -146.590       2.488406E-03  ghb
 ghbf19        -143.840       2.172116E-03  ghb
 ghbf20        -144.470       2.222996E-03  ghb
 strf0         -402.130       2.373344E-03  stream
 strf1         -385.440       3.060620E-03  stream
 strf2         -553.450       9.335831E-05  stream
 strf3         -466.640       1.742027E-03  stream
 strf4         -366.530       1.772557E-03  stream
 strf5         -412.460       2.325442E-03  stream
 strf6         -400.280       2.543195E-03  stream
 strf7         -390.340       3.037174E-03  stream
 strf8         -392.670       2.991315E-03  stream
 strf9         -376.140       2.607907E-03  stream
 strf10        -396.770       2.766504E-03  stream
 strf11        -393.820       2.935571E-03  stream
 strf12        -414.840       2.467260E-03  stream
 strf13        -393.030       2.928824E-03  stream
 strf14        -361.330       4.547906E-05  stream
 strf15        -446.360       3.240322E-03  stream
 strf16        -381.030       2.893289E-03  stream
 strf17        -409.030       2.003013E-03  stream
 strf18        -389.530       3.030095E-03  stream
 strf19        -387.930       3.082428E-03  stream
 strf20        -393.080       2.929152E-03  stream
 strf21        -412.930       2.328763E-03  stream
 strf22        -418.030       2.750719E-03  stream
 strf23        -424.620       3.225956E-03  stream
 strf24        -431.650       3.525446E-03  stream
 strf25        -381.950       2.965260E-03  stream
 strf26        -394.960       2.880087E-03  stream
 strf27        -401.970       2.372251E-03  stream
 strf28        -416.930       2.675910E-03  stream
 strf29        -435.540       3.571017E-03  stream
 chdf0          8.72000       1.255651E-03  const_head
 chdf1          20.9700       2.895044E-03  const_head
 chdf2          41.2500       9.076177E-04  const_head
 chdf3          38.6400       1.228525E-03  const_head
 chdf4          45.5000       2.843463E-05  const_head
 chdf5          33.3400       1.967378E-03  const_head
 chdf6          26.3600       2.883554E-03  const_head
 chdf7          1.28000       5.030715E-04  const_head
 chdf8         -17.7000       1.795372E-03  const_head
 chdf9         -27.7600       2.754927E-03  const_head
 chdf10        -38.1200       3.093445E-03  const_head
 chdf11        -42.7400       2.846321E-03  const_head
 chdf12        -23.6800       2.374191E-03  const_head
 chdf13        -10.7600       1.172404E-03  const_head
 chdf14        -43.2400       2.787785E-03  const_head
 chdf15        -54.5500       3.063854E-05  const_head
 chdf16        -53.9500       1.725867E-03  const_head
 chdf17        -44.4500       2.675573E-03  const_head
 chdf18        -45.6500       2.569032E-03  const_head
 chdf19        -11.7400       1.240822E-03  const_head
 chdf20         3.22000       6.535684E-04  const_head
 pi0    0.000000       3.3377344E-02  regul_1
 pi1    0.000000       1.6975977E-03  regul_1
 pi2    0.000000       3.3877814E-02  regul_1
 pi3    0.000000       1.0058254E-02  regul_1
 pi4    0.000000       6.9619328E-04  regul_1
 pi5    0.000000       1.7542869E-03  regul_1
 pi6    0.000000       7.1564970E-04  regul_1
 pi7    0.000000       2.2704731E-19  regul_1
 pi8    0.000000       3.3377344E-02  regul_1
 pi9    0.000000       1.0058254E-02  regul_1
 pi10    0.000000       3.3877814E-02  regul_1
 pi11    0.000000       1.0058254E-02  regul_1
 pi12    0.000000       7.1564965E-04  regul_1
 pi13    0.000000       1.7542870E-03  regul_1
 pi14    0.000000       7.1564970E-04  regul_1
 pi15    0.000000       6.9619328E-04  regul_1
 pi16    0.000000       1.0058254E-02  regul_1
 pi17    0.000000       3.3877814E-02  regul_1
 pi18    0.000000        0.000000      regul_1
 pi19    0.000000       7.1564970E-04  regul_1
 pi20    0.000000       1.7542870E-03  regul_1
 pi21    0.000000       3.3377344E-02  regul_1
 pi22    0.000000       1.6975977E-03  regul_1
 pi23    0.000000       3.3877810E-02  regul_1
 pi24    0.000000       1.0058254E-02  regul_1
 pi25    0.000000       6.9619328E-04  regul_1
 pi26    0.000000       3.3377344E-02  regul_1
 pi27    0.000000       1.0058254E-02  regul_1
 pi28    0.000000       3.3877814E-02  regul_1
 pi29    0.000000       1.0058254E-02  regul_1
 pi30    0.000000       6.9619324E-04  regul_1
 pi31    0.000000       1.0058254E-02  regul_1
 pi32    0.000000       3.3877814E-02  regul_1
 pi33    0.000000       3.3377340E-02  regul_1
 pi34    0.000000       1.6975975E-03  regul_1
 pi35    0.000000       3.3377344E-02  regul_1
 pi36    0.000000       3.3377348E-02  regul_1
 pi37    0.000000       1.6975977E-03  regul_1
 pi38    0.000000       3.3877800E-02  regul_1
 pi39    0.000000       1.0058253E-02  regul_1
 pi40    0.000000       6.9619335E-04  regul_1
 pi41    0.000000       1.7542873E-03  regul_1
 pi42    0.000000       7.1564959E-04  regul_1
 pi43    0.000000       2.3341533E-19  regul_1
 pi44    0.000000       3.3377345E-02  regul_1
 pi45    0.000000       1.0058254E-02  regul_1
 pi46    0.000000       3.3877812E-02  regul_1
 pi47    0.000000       1.0058256E-02  regul_1
 pi48    0.000000       7.1564982E-04  regul_1
 pi49    0.000000       1.7542870E-03  regul_1
 pi50    0.000000       7.1564982E-04  regul_1
 pi51    0.000000       6.9619341E-04  regul_1
 pi52    0.000000       1.0058256E-02  regul_1
 pi53    0.000000       3.3877818E-02  regul_1
 pi54    0.000000        0.000000      regul_1
 pi55    0.000000       7.1564983E-04  regul_1
 pi56    0.000000       1.7542873E-03  regul_1
 pi57    0.000000       3.3377349E-02  regul_1
 pi58    0.000000       1.6975979E-03  regul_1
 pi59    0.000000       3.3877800E-02  regul_1
 pi60    0.000000       1.0058256E-02  regul_1
 pi61    0.000000       6.9619339E-04  regul_1
 pi62    0.000000       3.3377348E-02  regul_1
 pi63    0.000000       1.0058253E-02  regul_1
 pi64    0.000000       3.3877818E-02  regul_1
 pi65    0.000000       1.0058256E-02  regul_1
 pi66    0.000000       6.9619334E-04  regul_1
 pi67    0.000000       1.0058255E-02  regul_1
 pi68    0.000000       3.3877819E-02  regul_1
 pi69    0.000000       3.3377329E-02  regul_1
 pi70    0.000000       1.6975978E-03  regul_1
 pi71    0.000000       3.3377346E-02  regul_1
 pi72    0.000000       3.3377316E-02  regul_1
 pi73    0.000000       1.6975966E-03  regul_1
 pi74    0.000000       3.3877791E-02  regul_1
 pi75    0.000000       1.0058250E-02  regul_1
 pi76    0.000000       6.9619319E-04  regul_1
 pi77    0.000000       1.7542874E-03  regul_1
 pi78    0.000000       7.1564924E-04  regul_1
 pi79    0.000000        0.000000      regul_1
 pi80    0.000000       3.3377348E-02  regul_1
 pi81    0.000000       1.0058257E-02  regul_1
 pi82    0.000000       3.3877821E-02  regul_1
 pi83    0.000000       1.0058257E-02  regul_1
 pi84    0.000000       7.1564998E-04  regul_1
 pi85    0.000000       1.7542875E-03  regul_1
 pi86    0.000000       7.1565007E-04  regul_1
 pi87    0.000000       6.9619358E-04  regul_1
 pi88    0.000000       1.0058256E-02  regul_1
 pi89    0.000000       3.3877817E-02  regul_1
 pi90    0.000000       8.2214925E-18  regul_1
 pi91    0.000000       7.1565007E-04  regul_1
 pi92    0.000000       1.7542876E-03  regul_1
 pi93    0.000000       3.3377351E-02  regul_1
 pi94    0.000000       1.6975983E-03  regul_1
 pi95    0.000000       3.3877816E-02  regul_1
 pi96    0.000000       1.0058256E-02  regul_1
 pi97    0.000000       6.9619363E-04  regul_1
 pi98    0.000000       3.3377351E-02  regul_1
 pi99    0.000000       1.0058256E-02  regul_1
 pi100    0.000000       3.3877816E-02  regul_1
 pi101    0.000000       1.0058257E-02  regul_1
 pi102    0.000000       6.9619355E-04  regul_1
 pi103    0.000000       1.0058256E-02  regul_1
 pi104    0.000000       3.3877820E-02  regul_1
 pi105    0.000000       3.3377329E-02  regul_1
 pi106    0.000000       1.6975980E-03  regul_1
 pi107    0.000000       3.3377350E-02  regul_1
 pi108    0.000000       3.3377344E-02  regul_1
 pi109    0.000000       1.6975976E-03  regul_1
 pi110    0.000000       3.3877813E-02  regul_1
 pi111    0.000000       1.0058254E-02  regul_1
 pi112    0.000000       6.9619325E-04  regul_1
 pi113    0.000000       1.7542869E-03  regul_1
 pi114    0.000000       7.1564967E-04  regul_1
 pi115    0.000000       2.7938218E-24  regul_1
 pi116    0.000000       3.3377344E-02  regul_1
 pi117    0.000000       1.0058254E-02  regul_1
 pi118    0.000000       3.3877813E-02  regul_1
 pi119    0.000000       1.0058254E-02  regul_1
 pi120    0.000000       7.1564967E-04  regul_1
 pi121    0.000000       1.7542869E-03  regul_1
 pi122    0.000000       7.1564966E-04  regul_1
 pi123    0.000000       6.9619325E-04  regul_1
 pi124    0.000000       1.0058254E-02  regul_1
 pi125    0.000000       3.3877813E-02  regul_1
 pi126    0.000000        0.000000      regul_1
 pi127    0.000000       7.1564966E-04  regul_1
 pi128    0.000000       1.7542869E-03  regul_1
 pi129    0.000000       3.3377344E-02  regul_1
 pi130    0.000000       1.6975976E-03  regul_1
 pi131    0.000000       3.3877813E-02  regul_1
 pi132    0.000000       1.0058254E-02  regul_1
 pi133    0.000000       6.9619325E-04  regul_1
 pi134    0.000000       3.3377343E-02  regul_1
 pi135    0.000000       1.0058254E-02  regul_1
 pi136    0.000000       3.3877813E-02  regul_1
 pi137    0.000000       1.0058254E-02  regul_1
 pi138    0.000000       6.9619325E-04  regul_1
 pi139    0.000000       1.0058254E-02  regul_1
 pi140    0.000000       3.3877813E-02  regul_1
 pi141    0.000000       3.3377344E-02  regul_1
 pi142    0.000000       1.6975976E-03  regul_1
 pi143    0.000000       3.3377344E-02  regul_1
 pi144    0.000000       1.4164883E-02  regul_2
 pi145    0.000000       1.6891008E-03  regul_2
 pi146    0.000000       2.2879966E-04  regul_2
 pi147    0.000000       1.4344319E-02  regul_2
 pi148    0.000000       5.4225458E-03  regul_2
 pi149    0.000000       1.0850115E-03  regul_2
 pi150    0.000000       1.5585234E-04  regul_2
 pi151    0.000000       1.7201259E-03  regul_2
 pi152    0.000000       1.0983357E-03  regul_2
 pi153    0.000000       3.3890911E-04  regul_2
 pi154    0.000000       4.1806186E-05  regul_2
 pi155    0.000000       2.3644016E-04  regul_2
 pi156    0.000000       1.6063504E-04  regul_2
 pi157    0.000000       4.2849194E-05  regul_2
 pi158    0.000000        0.000000      regul_2
 pi159    0.000000       1.4164883E-02  regul_2
 pi160    0.000000       1.6891008E-03  regul_2
 pi161    0.000000       5.4225458E-03  regul_2
 pi162    0.000000       1.4344319E-02  regul_2
 pi163    0.000000       5.4225458E-03  regul_2
 pi164    0.000000       1.0850115E-03  regul_2
 pi165    0.000000       1.0983357E-03  regul_2
 pi166    0.000000       1.7201259E-03  regul_2
 pi167    0.000000       1.0983357E-03  regul_2
 pi168    0.000000       3.3890911E-04  regul_2
 pi169    0.000000       1.6063504E-04  regul_2
 pi170    0.000000       2.3644016E-04  regul_2
 pi171    0.000000       1.6063504E-04  regul_2
 pi172    0.000000       4.2849194E-05  regul_2
 pi173    0.000000       1.4164883E-02  regul_2
 pi174    0.000000       1.0850115E-03  regul_2
 pi175    0.000000       5.4225458E-03  regul_2
 pi176    0.000000       1.4344319E-02  regul_2
 pi177    0.000000       5.4225458E-03  regul_2
 pi178    0.000000       3.3890911E-04  regul_2
 pi179    0.000000       1.0983357E-03  regul_2
 pi180    0.000000       1.7201259E-03  regul_2
 pi181    0.000000       1.0983357E-03  regul_2
 pi182    0.000000       4.2849194E-05  regul_2
 pi183    0.000000       1.6063504E-04  regul_2
 pi184    0.000000       2.3644016E-04  regul_2
 pi185    0.000000       1.6063504E-04  regul_2
 pi186    0.000000       1.5585234E-04  regul_2
 pi187    0.000000       1.0850115E-03  regul_2
 pi188    0.000000       5.4225458E-03  regul_2
 pi189    0.000000       1.4344319E-02  regul_2
 pi190    0.000000       4.1806186E-05  regul_2
 pi191    0.000000       3.3890911E-04  regul_2
 pi192    0.000000       1.0983357E-03  regul_2
 pi193    0.000000       1.7201259E-03  regul_2
 pi194    0.000000       2.2505930E-31  regul_2
 pi195    0.000000       4.2849194E-05  regul_2
 pi196    0.000000       1.6063504E-04  regul_2
 pi197    0.000000       2.3644016E-04  regul_2
 pi198    0.000000       1.4164883E-02  regul_2
 pi199    0.000000       1.6891008E-03  regul_2
 pi200    0.000000       2.2879966E-04  regul_2
 pi201    0.000000       1.4344319E-02  regul_2
 pi202    0.000000       5.4225458E-03  regul_2
 pi203    0.000000       1.0850115E-03  regul_2
 pi204    0.000000       1.5585234E-04  regul_2
 pi205    0.000000       1.7201259E-03  regul_2
 pi206    0.000000       1.0983357E-03  regul_2
 pi207    0.000000       3.3890911E-04  regul_2
 pi208    0.000000       4.1806186E-05  regul_2
 pi209    0.000000       1.4164883E-02  regul_2
 pi210    0.000000       1.6891008E-03  regul_2
 pi211    0.000000       5.4225458E-03  regul_2
 pi212    0.000000       1.4344319E-02  regul_2
 pi213    0.000000       5.4225458E-03  regul_2
 pi214    0.000000       1.0850115E-03  regul_2
 pi215    0.000000       1.0983357E-03  regul_2
 pi216    0.000000       1.7201259E-03  regul_2
 pi217    0.000000       1.0983357E-03  regul_2
 pi218    0.000000       3.3890911E-04  regul_2
 pi219    0.000000       1.4164883E-02  regul_2
 pi220    0.000000       1.0850115E-03  regul_2
 pi221    0.000000       5.4225458E-03  regul_2
 pi222    0.000000       1.4344319E-02  regul_2
 pi223    0.000000       5.4225458E-03  regul_2
 pi224    0.000000       3.3890911E-04  regul_2
 pi225    0.000000       1.0983357E-03  regul_2
 pi226    0.000000       1.7201259E-03  regul_2
 pi227    0.000000       1.0983357E-03  regul_2
 pi228    0.000000       1.5585234E-04  regul_2
 pi229    0.000000       1.0850115E-03  regul_2
 pi230    0.000000       5.4225458E-03  regul_2
 pi231    0.000000       1.4344319E-02  regul_2
 pi232    0.000000       4.1806186E-05  regul_2
 pi233    0.000000       3.3890911E-04  regul_2
 pi234    0.000000       1.0983357E-03  regul_2
 pi235    0.000000       1.7201259E-03  regul_2
 pi236    0.000000       1.4164883E-02  regul_2
 pi237    0.000000       1.6891008E-03  regul_2
 pi238    0.000000       2.2879966E-04  regul_2
 pi239    0.000000       1.4344319E-02  regul_2
 pi240    0.000000       5.4225458E-03  regul_2
 pi241    0.000000       1.0850115E-03  regul_2
 pi242    0.000000       1.5585234E-04  regul_2
 pi243    0.000000       1.4164883E-02  regul_2
 pi244    0.000000       1.6891008E-03  regul_2
 pi245    0.000000       5.4225458E-03  regul_2
 pi246    0.000000       1.4344319E-02  regul_2
 pi247    0.000000       5.4225458E-03  regul_2
 pi248    0.000000       1.0850115E-03  regul_2
 pi249    0.000000       1.4164883E-02  regul_2
 pi250    0.000000       1.0850115E-03  regul_2
 pi251    0.000000       5.4225458E-03  regul_2
 pi252    0.000000       1.4344319E-02  regul_2
 pi253    0.000000       5.4225458E-03  regul_2
 pi254    0.000000       1.5585234E-04  regul_2
 pi255    0.000000       1.0850115E-03  regul_2
 pi256    0.000000       5.4225458E-03  regul_2
 pi257    0.000000       1.4344319E-02  regul_2
 pi258    0.000000       1.4164883E-02  regul_2
 pi259    0.000000       1.6891008E-03  regul_2
 pi260    0.000000       2.2879966E-04  regul_2
 pi261    0.000000       1.4164883E-02  regul_2
 pi262    0.000000       1.6891008E-03  regul_2
 pi263    0.000000       1.4164883E-02  regul_2
 pi264    0.000000       0.4513832      regul_2
 pi265    0.000000        0.000000      regul_2
 pi266    0.000000       4.8616756E-02  regul_2
 pi267    0.000000        0.000000      regul_2
 pi268    0.000000       2.2154622E-02  regul_2
 pi269    0.000000       0.4778454      regul_2
 pi270    0.000000       1.4164883E-02  regul_2
 pi271    0.000000       1.6891008E-03  regul_2
 pi272    0.000000       2.2879966E-04  regul_2
 pi273    0.000000       1.4344319E-02  regul_2
 pi274    0.000000       5.4225458E-03  regul_2
 pi275    0.000000       1.0850115E-03  regul_2
 pi276    0.000000       1.5585234E-04  regul_2
 pi277    0.000000       1.7201259E-03  regul_2
 pi278    0.000000       1.0983357E-03  regul_2
 pi279    0.000000       3.3890911E-04  regul_2
 pi280    0.000000       4.1806186E-05  regul_2
 pi281    0.000000       2.3644016E-04  regul_2
 pi282    0.000000       1.6063504E-04  regul_2
 pi283    0.000000       4.2849194E-05  regul_2
 pi284    0.000000        0.000000      regul_2
 pi285    0.000000       1.4164883E-02  regul_2
 pi286    0.000000       1.6891008E-03  regul_2
 pi287    0.000000       5.4225458E-03  regul_2
 pi288    0.000000       1.4344319E-02  regul_2
 pi289    0.000000       5.4225458E-03  regul_2
 pi290    0.000000       1.0850115E-03  regul_2
 pi291    0.000000       1.0983357E-03  regul_2
 pi292    0.000000       1.7201259E-03  regul_2
 pi293    0.000000       1.0983357E-03  regul_2
 pi294    0.000000       3.3890911E-04  regul_2
 pi295    0.000000       1.6063504E-04  regul_2
 pi296    0.000000       2.3644016E-04  regul_2
 pi297    0.000000       1.6063504E-04  regul_2
 pi298    0.000000       4.2849194E-05  regul_2
 pi299    0.000000       1.4164883E-02  regul_2
 pi300    0.000000       1.0850115E-03  regul_2
 pi301    0.000000       5.4225458E-03  regul_2
 pi302    0.000000       1.4344319E-02  regul_2
 pi303    0.000000       5.4225458E-03  regul_2
 pi304    0.000000       3.3890911E-04  regul_2
 pi305    0.000000       1.0983357E-03  regul_2
 pi306    0.000000       1.7201259E-03  regul_2
 pi307    0.000000       1.0983357E-03  regul_2
 pi308    0.000000       4.2849194E-05  regul_2
 pi309    0.000000       1.6063504E-04  regul_2
 pi310    0.000000       2.3644016E-04  regul_2
 pi311    0.000000       1.6063504E-04  regul_2
 pi312    0.000000       1.5585234E-04  regul_2
 pi313    0.000000       1.0850115E-03  regul_2
 pi314    0.000000       5.4225458E-03  regul_2
 pi315    0.000000       1.4344319E-02  regul_2
 pi316    0.000000       4.1806186E-05  regul_2
 pi317    0.000000       3.3890911E-04  regul_2
 pi318    0.000000       1.0983357E-03  regul_2
 pi319    0.000000       1.7201259E-03  regul_2
 pi320    0.000000        0.000000      regul_2
 pi321    0.000000       4.2849194E-05  regul_2
 pi322    0.000000       1.6063504E-04  regul_2
 pi323    0.000000       2.3644016E-04  regul_2
 pi324    0.000000       1.4164883E-02  regul_2
 pi325    0.000000       1.6891008E-03  regul_2
 pi326    0.000000       2.2879966E-04  regul_2
 pi327    0.000000       1.4344319E-02  regul_2
 pi328    0.000000       5.4225458E-03  regul_2
 pi329    0.000000       1.0850115E-03  regul_2
 pi330    0.000000       1.5585234E-04  regul_2
 pi331    0.000000       1.7201259E-03  regul_2
 pi332    0.000000       1.0983357E-03  regul_2
 pi333    0.000000       3.3890911E-04  regul_2
 pi334    0.000000       4.1806186E-05  regul_2
 pi335    0.000000       1.4164883E-02  regul_2
 pi336    0.000000       1.6891008E-03  regul_2
 pi337    0.000000       5.4225458E-03  regul_2
 pi338    0.000000       1.4344319E-02  regul_2
 pi339    0.000000       5.4225458E-03  regul_2
 pi340    0.000000       1.0850115E-03  regul_2
 pi341    0.000000       1.0983357E-03  regul_2
 pi342    0.000000       1.7201259E-03  regul_2
 pi343    0.000000       1.0983357E-03  regul_2
 pi344    0.000000       3.3890911E-04  regul_2
 pi345    0.000000       1.4164883E-02  regul_2
 pi346    0.000000       1.0850115E-03  regul_2
 pi347    0.000000       5.4225458E-03  regul_2
 pi348    0.000000       1.4344319E-02  regul_2
 pi349    0.000000       5.4225458E-03  regul_2
 pi350    0.000000       3.3890911E-04  regul_2
 pi351    0.000000       1.0983357E-03  regul_2
 pi352    0.000000       1.7201259E-03  regul_2
 pi353    0.000000       1.0983357E-03  regul_2
 pi354    0.000000       1.5585234E-04  regul_2
 pi355    0.000000       1.0850115E-03  regul_2
 pi356    0.000000       5.4225458E-03  regul_2
 pi357    0.000000       1.4344319E-02  regul_2
 pi358    0.000000       4.1806186E-05  regul_2
 pi359    0.000000       3.3890911E-04  regul_2
 pi360    0.000000       1.0983357E-03  regul_2
 pi361    0.000000       1.7201259E-03  regul_2
 pi362    0.000000       1.4164883E-02  regul_2
 pi363    0.000000       1.6891008E-03  regul_2
 pi364    0.000000       2.2879966E-04  regul_2
 pi365    0.000000       1.4344319E-02  regul_2
 pi366    0.000000       5.4225458E-03  regul_2
 pi367    0.000000       1.0850115E-03  regul_2
 pi368    0.000000       1.5585234E-04  regul_2
 pi369    0.000000       1.4164883E-02  regul_2
 pi370    0.000000       1.6891008E-03  regul_2
 pi371    0.000000       5.4225458E-03  regul_2
 pi372    0.000000       1.4344319E-02  regul_2
 pi373    0.000000       5.4225458E-03  regul_2
 pi374    0.000000       1.0850115E-03  regul_2
 pi375    0.000000       1.4164883E-02  regul_2
 pi376    0.000000       1.0850115E-03  regul_2
 pi377    0.000000       5.4225458E-03  regul_2
 pi378    0.000000       1.4344319E-02  regul_2
 pi379    0.000000       5.4225458E-03  regul_2
 pi380    0.000000       1.5585234E-04  regul_2
 pi381    0.000000       1.0850115E-03  regul_2
 pi382    0.000000       5.4225458E-03  regul_2
 pi383    0.000000       1.4344319E-02  regul_2
 pi384    0.000000       1.4164883E-02  regul_2
 pi385    0.000000       1.6891008E-03  regul_2
 pi386    0.000000       2.2879966E-04  regul_2
 pi387    0.000000       1.4164883E-02  regul_2
 pi388    0.000000       1.6891008E-03  regul_2
 pi389    0.000000       1.4164883E-02  regul_2
 pi390   9.7331785E-02    1.000000      regul_1
 pi391   9.7686782E-02    1.000000      regul_1
 pi392   9.9011786E-02    1.000000      regul_1
 pi393   9.8011784E-02    1.000000      regul_1
 pi394   9.8101787E-02    1.000000      regul_1
 pi395   9.6101791E-02    1.000000      regul_1
 pi396   5.4972790E-02    1.000000      regul_1
 pi397   9.8836787E-02    1.000000      regul_1
 pi398   9.7766787E-02    1.000000      regul_1
 pi399   0.3482148        1.000000      regul_1
 pi400   0.4562348        1.000000      regul_1
 pi401   0.6376349        1.000000      regul_1
 pi402   0.7284749        1.000000      regul_1
 pi403   0.6850948        1.000000      regul_1
 pi404   0.5698148        1.000000      regul_1
 pi405   0.3422188        1.000000      regul_1
 pi406   0.7429549        1.000000      regul_1
 pi407   0.5844348        1.000000      regul_1
 pi408   -1.697120        1.000000      regul_1
 pi409   -1.562538        1.000000      regul_1
 pi410   -1.523139        1.000000      regul_1
 pi411   -1.573475        1.000000      regul_1
 pi412   -1.565433        1.000000      regul_1
 pi413   -1.561455        1.000000      regul_1
 pi414   -1.621999        1.000000      regul_1
 pi415   -1.521182        1.000000      regul_1
 pi416   -1.546419        1.000000      regul_1
 pi417   0.6728652        1.000000      regul_1
 pi418   0.6808544        1.000000      regul_1
 pi419   0.7722331        1.000000      regul_1
 pi420   0.6637620        1.000000      regul_1
 pi421   0.6567761        1.000000      regul_1
 pi422   0.7722331        1.000000      regul_1
 pi423   0.6695227        1.000000      regul_1
 pi424   0.7007406        1.000000      regul_1
 pi425   0.7722332        1.000000      regul_1
 pi426   -8.107669        1.000000      regul_2
 pi427   -8.149594        1.000000      regul_2
 pi428   -7.934110        1.000000      regul_2
 pi429   -6.761097        1.000000      regul_2
 pi430   -7.928412        1.000000      regul_2
 pi431   -8.426078        1.000000      regul_2
 pi432   -7.739511        1.000000      regul_2
 pi433   -6.169823        1.000000      regul_2
 pi434   -8.178199        1.000000      regul_2
 pi435   -8.610280        1.000000      regul_2
 pi436   -6.533216        1.000000      regul_2
 pi437   -6.169823        1.000000      regul_2
 pi438   -8.199366        1.000000      regul_2
 pi439   -7.997995        1.000000      regul_2
 pi440   -7.039353        1.000000      regul_2
 pi441   -6.169823        1.000000      regul_2
 pi442   -6.860258        1.000000      regul_2
 pi443   -7.744978        1.000000      regul_2
 pi444   -6.169823        1.000000      regul_2
 pi445   -7.048530        1.000000      regul_2
 pi446   -8.175728        1.000000      regul_2
 pi447   -8.073694        1.000000      regul_2
 pi448   -8.488991        1.000000      regul_2
 pi449   -8.431495        1.000000      regul_2
 pi450   -8.707942        1.000000      regul_2
 pi451   -9.232446        1.000000      regul_2
 pi452   -9.152328        1.000000      regul_2
 pi453   -9.125610        1.000000      regul_2
 pi454   -8.509315        1.000000      regul_2
 pi455   -9.295513        1.000000      regul_2
 pi456   -8.445414        1.000000      regul_2
 pi457   -9.098669        1.000000      regul_2
 pi458   -8.448713        1.000000      regul_2
 pi459   -9.225702        1.000000      regul_2
 pi460   -8.487268        1.000000      regul_2
 pi461   -8.539483        1.000000      regul_2
 pi462   -8.979537        1.000000      regul_2
 pi463   -9.185688        1.000000      regul_2
* model command line
svdabatch.bat
* model input/output
parcalc.tpl   parcalc.in
 A003.ins A003._os
picalc.ins   picalc.out
* regularisation
  0.10000      0.11000      0.10000
  0.10000      1.00000E-06  1.00000E+06
   1.3000      1.00000E-02
