                                  MODFLOW-2000
      U.S. GEOLOGICAL SURVEY MODULAR FINITE-DIFFERENCE GROUND-WATER FLOW MODEL
                           VERSION 1.19.01 03/25/2010


 This model run produced both GLOBAL and LIST files.  This is the GLOBAL file.

 GLOBAL LISTING FILE: "C.glo"
                         UNIT  701

 OPENING "C.out"
 FILE TYPE:LIST   UNIT  702   STATUS:REPLACE
 FORMAT:FORMATTED              ACCESS:SEQUENTIAL          

 OPENING "C.hed"
 FILE TYPE:DATA(BINARY)   UNIT  730   STATUS:UNKNOWN
 FORMAT:BINARY                 ACCESS:SEQUENTIAL          

 OPENING "C.ccf"
 FILE TYPE:DATA(BINARY)   UNIT  740   STATUS:UNKNOWN
 FORMAT:BINARY                 ACCESS:SEQUENTIAL          

 OPENING "C.lmt"
 FILE TYPE:LMT6   UNIT  718   STATUS:OLD    
 FORMAT:FORMATTED              ACCESS:SEQUENTIAL          
#                                                                                                                                                                                                       
# Obs-Sen-Pes Process Input Files                                                                                                                                                                       

 OPENING "C.obs"
 FILE TYPE:OBS   UNIT  750   STATUS:OLD    
 FORMAT:FORMATTED              ACCESS:SEQUENTIAL          

 OPENING "C.hob"
 FILE TYPE:HOB   UNIT  751   STATUS:OLD    
 FORMAT:FORMATTED              ACCESS:SEQUENTIAL          

 OPENING "C.rvob"
 FILE TYPE:RVOB   UNIT  752   STATUS:OLD    
 FORMAT:FORMATTED              ACCESS:SEQUENTIAL          

 OPENING "C.gbob"
 FILE TYPE:GBOB   UNIT  753   STATUS:OLD    
 FORMAT:FORMATTED              ACCESS:SEQUENTIAL          

 OPENING "C.chob"
 FILE TYPE:CHOB   UNIT  755   STATUS:OLD    
 FORMAT:FORMATTED              ACCESS:SEQUENTIAL          

 FILE TYPE:ASP: FILE = C.asp
#                                                                                                                                                                                                       
# Global Input Files                                                                                                                                                                                    

 OPENING "C.dis"
 FILE TYPE:DIS   UNIT  719   STATUS:OLD    
 FORMAT:FORMATTED              ACCESS:SEQUENTIAL          
#                                                                                                                                                                                                       
# Flow Process Input Files                                                                                                                                                                              

 OPENING "C.ba6"
 FILE TYPE:BAS6   UNIT  703   STATUS:OLD    
 FORMAT:FORMATTED              ACCESS:SEQUENTIAL          

 OPENING "C.lpf"
 FILE TYPE:LPF   UNIT  704   STATUS:OLD    
 FORMAT:FORMATTED              ACCESS:SEQUENTIAL          

 OPENING "C.oc"
 FILE TYPE:OC   UNIT  715   STATUS:OLD    
 FORMAT:FORMATTED              ACCESS:SEQUENTIAL          

 OPENING "C.rch"
 FILE TYPE:RCH   UNIT  716   STATUS:OLD    
 FORMAT:FORMATTED              ACCESS:SEQUENTIAL          

 OPENING "C.riv"
 FILE TYPE:RIV   UNIT  708   STATUS:OLD    
 FORMAT:FORMATTED              ACCESS:SEQUENTIAL          

 OPENING "C.ghb"
 FILE TYPE:GHB   UNIT  711   STATUS:OLD    
 FORMAT:FORMATTED              ACCESS:SEQUENTIAL          

 OPENING "C.chd"
 FILE TYPE:CHD   UNIT  713   STATUS:OLD    
 FORMAT:FORMATTED              ACCESS:SEQUENTIAL          

 OPENING "C.pcg"
 FILE TYPE:PCG   UNIT  714   STATUS:OLD    
 FORMAT:FORMATTED              ACCESS:SEQUENTIAL          

 THE FREE FORMAT OPTION HAS BEEN SELECTED

 DISCRETIZATION INPUT DATA READ FROM UNIT  719
 # MF2K DISCRETIZATION FILE
 #
 #
 # NLAY NROW NCOL NPER TIMEUNITS LENUNITS
   16 LAYERS       125 ROWS       125 COLUMNS
    1 STRESS PERIOD(S) IN SIMULATION
 MODEL TIME UNIT IS DAYS
 MODEL LENGTH UNIT IS METERS
 THE GROUND-WATER TRANSPORT PROCESS IS INACTIVE

 THE OBSERVATION PROCESS IS ACTIVE
 THE SENSITIVITY PROCESS IS INACTIVE
 THE PARAMETER-ESTIMATION PROCESS IS INACTIVE

 MODE: FORWARD WITH OBSERVATIONS

  Confining bed flag for each layer:
   0   0   0   0   0   0   0   0   0   0   0   0   0   0   0   0

    2250250  ELEMENTS OF GX ARRAY USED OUT OF    2250250
     250000  ELEMENTS OF GZ ARRAY USED OUT OF     250000
     250000  ELEMENTS OF IG ARRAY USED OUT OF     250000

 -------------------------------------------------------------------------------

 VARIABLES READ FROM ASP INPUT FILE:-

 NOSTOP = 1          : DO NOT CEASE EXECUTION IF MODFLOW FAILS TO CONVERGE.
 HYDRYBOT = 1        : ASSIGN CELL BOTTOM ELEVATION TO HEAD IN DRY CELLS.
 MINTHICK =     0.000: DO NOT PREVENT BASAL CELLS DRYING OUT.
 LIMOP = 0           : NO LIMITATIONS ON OBSERVATION OR SENSITIVITY OUTPUT.

 -------------------------------------------------------------------------------




                               DELR
 READING ON UNIT  719 WITH FORMAT: (FREE)              



                               DELC
 READING ON UNIT  719 WITH FORMAT: (FREE)              


 STRESS PERIOD     LENGTH       TIME STEPS     MULTIPLIER FOR DELT    SS FLAG
 ----------------------------------------------------------------------------
        1         1.000000          1                    1.000         SS

 STEADY-STATE SIMULATION




 LPF1 -- LAYER PROPERTY FLOW PACKAGE, VERSION 1, 1/11/2000
         INPUT READ FROM UNIT  704
 CELL-BY-CELL FLOWS WILL BE SAVED ON UNIT  740
 HEAD AT CELLS THAT CONVERT TO DRY= layer bottom elevation.
 No named parameters

   LAYER FLAGS:
 LAYER       LAYTYP        LAYAVG         CHANI        LAYVKA        LAYWET
 ---------------------------------------------------------------------------
    1             1             0    -1.000E+00             1             1
    2             1             0    -1.000E+00             1             1
    3             1             0    -1.000E+00             1             1
    4             1             0    -1.000E+00             1             1
    5             1             0    -1.000E+00             1             1
    6             1             0    -1.000E+00             1             1
    7             1             0    -1.000E+00             1             1
    8             1             0    -1.000E+00             1             1
    9             1             0    -1.000E+00             1             1
   10             1             0    -1.000E+00             1             1
   11             1             0    -1.000E+00             1             1
   12             1             0    -1.000E+00             1             1
   13             1             0    -1.000E+00             1             1
   14             1             0    -1.000E+00             1             1
   15             1             0    -1.000E+00             1             1
   16             1             0    -1.000E+00             1             1

   INTERPRETATION OF LAYER FLAGS:
                        INTERBLOCK     HORIZONTAL    DATA IN
         LAYER TYPE   TRANSMISSIVITY   ANISOTROPY   ARRAY VKA   WETTABILITY
 LAYER      (LAYTYP)      (LAYAVG)       (CHANI)      (LAYVKA)      (LAYWET)
 ---------------------------------------------------------------------------
    1   CONVERTIBLE      HARMONIC      VARIABLE    ANISOTROPY      WETTABLE
    2   CONVERTIBLE      HARMONIC      VARIABLE    ANISOTROPY      WETTABLE
    3   CONVERTIBLE      HARMONIC      VARIABLE    ANISOTROPY      WETTABLE
    4   CONVERTIBLE      HARMONIC      VARIABLE    ANISOTROPY      WETTABLE
    5   CONVERTIBLE      HARMONIC      VARIABLE    ANISOTROPY      WETTABLE
    6   CONVERTIBLE      HARMONIC      VARIABLE    ANISOTROPY      WETTABLE
    7   CONVERTIBLE      HARMONIC      VARIABLE    ANISOTROPY      WETTABLE
    8   CONVERTIBLE      HARMONIC      VARIABLE    ANISOTROPY      WETTABLE
    9   CONVERTIBLE      HARMONIC      VARIABLE    ANISOTROPY      WETTABLE
   10   CONVERTIBLE      HARMONIC      VARIABLE    ANISOTROPY      WETTABLE
   11   CONVERTIBLE      HARMONIC      VARIABLE    ANISOTROPY      WETTABLE
   12   CONVERTIBLE      HARMONIC      VARIABLE    ANISOTROPY      WETTABLE
   13   CONVERTIBLE      HARMONIC      VARIABLE    ANISOTROPY      WETTABLE
   14   CONVERTIBLE      HARMONIC      VARIABLE    ANISOTROPY      WETTABLE
   15   CONVERTIBLE      HARMONIC      VARIABLE    ANISOTROPY      WETTABLE
   16   CONVERTIBLE      HARMONIC      VARIABLE    ANISOTROPY      WETTABLE

    1000000 ELEMENTS IN X ARRAY ARE USED BY LPF
         96 ELEMENTS IN IX ARRAY ARE USED BY LPF

 PCG2 -- CONJUGATE GRADIENT SOLUTION PACKAGE, VERSION 2.4, 12/29/98
 MAXIMUM OF     25 CALLS OF SOLUTION ROUTINE
 MAXIMUM OF     50 INTERNAL ITERATIONS PER CALL TO SOLUTION ROUTINE
 MATRIX PRECONDITIONING TYPE :    1
     502500 ELEMENTS IN X ARRAY ARE USED BY PCG
       8750 ELEMENTS IN IX ARRAY ARE USED BY PCG
    1000000 ELEMENTS IN Z ARRAY ARE USED BY PCG

 OBS1BAS6 -- OBSERVATION PROCESS, VERSION 1.0, 4/27/99
 INPUT READ FROM UNIT 750
 OBSERVATION GRAPH-DATA OUTPUT FILES
 WILL BE PRINTED AND NAMED USING THE BASE: C

 HEAD OBSERVATIONS -- INPUT READ FROM UNIT 751
 #           CoverageGUID ObjectType ID X Y Time OBNAME
 #GMSCOMMENT 10a73331-5e26-4e6d-b222-2ed8f10df474 POINT 1, 323566.58, 7394164.03 ts_0 hed1
 #GMSCOMMENT 10a73331-5e26-4e6d-b222-2ed8f10df474 POINT 2, 323523.01, 7394200.65 ts_0 hed2
 #GMSCOMMENT 10a73331-5e26-4e6d-b222-2ed8f10df474 POINT 3, 323557.17, 7394173.06 ts_0 hed3
 #GMSCOMMENT 10a73331-5e26-4e6d-b222-2ed8f10df474 POINT 4, 323559.87, 7394146.75 ts_0 hed4
 #GMSCOMMENT 10a73331-5e26-4e6d-b222-2ed8f10df474 POINT 5, 323560.77, 7394122.73 ts_0 hed5
 #GMSCOMMENT 10a73331-5e26-4e6d-b222-2ed8f10df474 POINT 6, 323575.69, 7394150.9 ts_0 hed6
 #GMSCOMMENT 10a73331-5e26-4e6d-b222-2ed8f10df474 POINT 7, 323604.73, 7394130.23 ts_0 hed7
 #GMSCOMMENT 10a73331-5e26-4e6d-b222-2ed8f10df474 POINT 8, 323504.1, 7394078.18 ts_0 hed8
 #GMSCOMMENT 10a73331-5e26-4e6d-b222-2ed8f10df474 POINT 9, 323422.25, 7394121.38 ts_0 hed9
 #GMSCOMMENT 10a73331-5e26-4e6d-b222-2ed8f10df474 POINT 10, 323554.79, 7394099.33 ts_0 hed10
 #GMSCOMMENT 10a73331-5e26-4e6d-b222-2ed8f10df474 POINT 11, 323450.28, 7394163.88 ts_0 hed11
 #GMSCOMMENT 10a73331-5e26-4e6d-b222-2ed8f10df474 POINT 12, 323499.7, 7394169.41 ts_0 hed12
 #GMSCOMMENT 10a73331-5e26-4e6d-b222-2ed8f10df474 POINT 13, 323513.64, 7394167.27 ts_0 hed13
 #GMSCOMMENT 10a73331-5e26-4e6d-b222-2ed8f10df474 POINT 14, 323615.4, 7394112.11 ts_0 hed14
 #GMSCOMMENT 10a73331-5e26-4e6d-b222-2ed8f10df474 POINT 15, 323545.6, 7394162.53 ts_0 hed15
 #GMSCOMMENT 10a73331-5e26-4e6d-b222-2ed8f10df474 POINT 16, 323588.15, 7394145.6 ts_0 hed16
 #GMSCOMMENT 10a73331-5e26-4e6d-b222-2ed8f10df474 POINT 17, 323596.12, 7394102.79 ts_0 hed17
 #GMSCOMMENT 10a73331-5e26-4e6d-b222-2ed8f10df474 POINT 18, 323512.85, 7394119.74 ts_0 hed18
 #GMSCOMMENT 10a73331-5e26-4e6d-b222-2ed8f10df474 POINT 19, 323507.17, 7394150.82 ts_0 hed19
 #GMSCOMMENT 10a73331-5e26-4e6d-b222-2ed8f10df474 POINT 20, 323474.33, 7394083.71 ts_0 hed20
 #GMSCOMMENT 10a73331-5e26-4e6d-b222-2ed8f10df474 POINT 21, 323528.38, 7394041.97 ts_0 hed21
 #GMSCOMMENT 10a73331-5e26-4e6d-b222-2ed8f10df474 POINT 22, 323589.05, 7394062.38 ts_0 hed22
 #GMSCOMMENT 10a73331-5e26-4e6d-b222-2ed8f10df474 POINT 23, 323494.63, 7394096.51 ts_0 hed23
 #GMSCOMMENT 10a73331-5e26-4e6d-b222-2ed8f10df474 POINT 24, 323412.65, 7394091.0 ts_0 hed24
 #GMSCOMMENT 10a73331-5e26-4e6d-b222-2ed8f10df474 POINT 25, 323416.7, 7394090.53 ts_0 hed25
 #GMSCOMMENT 10a73331-5e26-4e6d-b222-2ed8f10df474 POINT 26, 323501.2, 7394061.31 ts_0 hed26
 #GMSCOMMENT 10a73331-5e26-4e6d-b222-2ed8f10df474 POINT 27, 323481.12, 7394113.54 ts_0 hed27
 #GMSCOMMENT 10a73331-5e26-4e6d-b222-2ed8f10df474 POINT 28, 323490.31, 7394034.42 ts_0 hed28
 #GMSCOMMENT 10a73331-5e26-4e6d-b222-2ed8f10df474 POINT 29, 323429.49, 7394028.58 ts_0 hed29
 #GMSCOMMENT 10a73331-5e26-4e6d-b222-2ed8f10df474 POINT 30, 323569.83, 7394037.88 ts_0 hed30
 #GMSCOMMENT 10a73331-5e26-4e6d-b222-2ed8f10df474 POINT 31, 323452.41, 7394120.47 ts_0 hed31
 #GMSCOMMENT 10a73331-5e26-4e6d-b222-2ed8f10df474 POINT 32, 323401.81, 7394036.02 ts_0 hed32
 #GMSCOMMENT 10a73331-5e26-4e6d-b222-2ed8f10df474 POINT 33, 323486.83, 7394068.75 ts_0 hed33
 #GMSCOMMENT 10a73331-5e26-4e6d-b222-2ed8f10df474 POINT 34, 323506.81, 7394055.07 ts_0 hed34
 #GMSCOMMENT 10a73331-5e26-4e6d-b222-2ed8f10df474 POINT 35, 323513.33, 7394006.01 ts_0 hed35
 #GMSCOMMENT 10a73331-5e26-4e6d-b222-2ed8f10df474 POINT 36, 323468.5, 7394030.12 ts_0 hed36
 #GMSCOMMENT 10a73331-5e26-4e6d-b222-2ed8f10df474 POINT 37, 323549.43, 7394067.32 ts_0 hed37
 #GMSCOMMENT 10a73331-5e26-4e6d-b222-2ed8f10df474 POINT 38, 323432.8, 7393999.37 ts_0 hed38
 #GMSCOMMENT 10a73331-5e26-4e6d-b222-2ed8f10df474 POINT 39, 323454.43, 7394051.64 ts_0 hed39
 #GMSCOMMENT 10a73331-5e26-4e6d-b222-2ed8f10df474 POINT 40, 323506.02, 7394010.98 ts_0 hed40
 #GMSCOMMENT 10a73331-5e26-4e6d-b222-2ed8f10df474 POINT 41, 323493.83, 7393976.83 ts_0 hed41
 #GMSCOMMENT 10a73331-5e26-4e6d-b222-2ed8f10df474 POINT 42, 323450.27, 7394083.29 ts_0 hed42
 #GMSCOMMENT 10a73331-5e26-4e6d-b222-2ed8f10df474 POINT 43, 323484.59, 7393957.43 ts_0 hed43
 #GMSCOMMENT 10a73331-5e26-4e6d-b222-2ed8f10df474 POINT 44, 323442.03, 7393958.59 ts_0 hed44
 #GMSCOMMENT 10a73331-5e26-4e6d-b222-2ed8f10df474 POINT 45, 323396.05, 7393993.59 ts_0 hed45
 #GMSCOMMENT 10a73331-5e26-4e6d-b222-2ed8f10df474 POINT 46, 323466.69, 7393929.18 ts_0 hed46
 #GMSCOMMENT 10a73331-5e26-4e6d-b222-2ed8f10df474 POINT 47, 323479.55, 7393998.35 ts_0 hed47
 #GMSCOMMENT 10a73331-5e26-4e6d-b222-2ed8f10df474 POINT 48, 323469.87, 7393977.48 ts_0 hed48
 #GMSCOMMENT 10a73331-5e26-4e6d-b222-2ed8f10df474 POINT 49, 323459.1, 7393894.9 ts_0 hed49
 #GMSCOMMENT 10a73331-5e26-4e6d-b222-2ed8f10df474 POINT 50, 323413.31, 7393975.08 ts_0 hed50
 #GMSCOMMENT 10a73331-5e26-4e6d-b222-2ed8f10df474 POINT 51, 323457.09, 7393953.38 ts_0 hed51
 #GMSCOMMENT 10a73331-5e26-4e6d-b222-2ed8f10df474 POINT 52, 323420.08, 7393944.76 ts_0 hed52
 #GMSCOMMENT 10a73331-5e26-4e6d-b222-2ed8f10df474 POINT 53, 323402.59, 7393926.37 ts_0 hed53
 #GMSCOMMENT 10a73331-5e26-4e6d-b222-2ed8f10df474 POINT 54, 323476.74, 7393928.87 ts_0 hed54
 #GMSCOMMENT 10a73331-5e26-4e6d-b222-2ed8f10df474 POINT 55, 323377.54, 7393922.7 ts_0 hed55
 #GMSCOMMENT 10a73331-5e26-4e6d-b222-2ed8f10df474 POINT 56, 323376.17, 7393973.86 ts_0 hed56
 #GMSCOMMENT 10a73331-5e26-4e6d-b222-2ed8f10df474 POINT 57, 323460.92, 7393894.92 ts_0 hed57
 #GMSCOMMENT 10a73331-5e26-4e6d-b222-2ed8f10df474 POINT 58, 323436.11, 7393902.0 ts_0 hed58
 #GMSCOMMENT 10a73331-5e26-4e6d-b222-2ed8f10df474 POINT 59, 323413.89, 7393911.99 ts_0 hed59
 #GMSCOMMENT 10a73331-5e26-4e6d-b222-2ed8f10df474 POINT 60, 323429.86, 7393920.26 ts_0 hed60
 #GMSCOMMENT 10a73331-5e26-4e6d-b222-2ed8f10df474 POINT 61, 323462.87, 7393887.85 ts_0 hed61

 NUMBER OF HEADS....................................:   61
   NUMBER OF MULTILAYER HEADS.......................:    0
   MAXIMUM NUMBER OF LAYERS FOR MULTILAYER HEADS....:   16

 OBS1RIV6 -- OBSERVATION PROCESS (RIVER FLOW OBSERVATIONS)
 VERSION 1.0, 10/15/98
 INPUT READ FROM UNIT  752
 #           CoverageGUID ObjectType ID X Y Time OBNAME
 #GMSCOMMENT 720697a1-0249-4416-abbb-11b5a1deb1e9 ARC 2 323860.74041333 7394128.5182898 1.0 rivf0
 #GMSCOMMENT 720697a1-0249-4416-abbb-11b5a1deb1e9 ARC 3 323708.13895617 7394203.8878523 1.0 rivf1
 #GMSCOMMENT 720697a1-0249-4416-abbb-11b5a1deb1e9 ARC 4 323561.1060191 7394278.0514321 1.0 rivf2
 #GMSCOMMENT 720697a1-0249-4416-abbb-11b5a1deb1e9 ARC 5 323417.0259177 7394352.5436341 1.0 rivf3

 NUMBER OF FLOW-OBSERVATION RIVER-CELL GROUPS.....:      4
   NUMBER OF CELLS IN RIVER-CELL GROUPS...........:    136
   NUMBER OF RIVER-CELL FLOWS.....................:      4

 OBS1GHB6 -- OBSERVATION PROCESS (GENERAL HEAD BOUNDARY FLOW OBSERVATIONS)
 VERSION 1.0, 10/15/98
 INPUT READ FROM UNIT  753
 #           CoverageGUID ObjectType ID X Y Time OBNAME
 #GMSCOMMENT 6a7464ef-8196-43c8-8480-26be9f251ce0 ARC 1 323227.88664588 7394157.4989547 1.0 ghbf0
 #GMSCOMMENT 6a7464ef-8196-43c8-8480-26be9f251ce0 ARC 2 323303.13996501 7394313.0407251 1.0 ghbf1
 #GMSCOMMENT 6a7464ef-8196-43c8-8480-26be9f251ce0 ARC 4 323935.6 7394013.15 1.0 ghbf2
 #GMSCOMMENT 6a7464ef-8196-43c8-8480-26be9f251ce0 ARC 5 323935.3 7393897.0 1.0 ghbf3
 #GMSCOMMENT 6a7464ef-8196-43c8-8480-26be9f251ce0 ARC 6 323935.2 7393786.7 1.0 ghbf4

 NUMBER OF FLOW-OBSERVATION GENERAL-HEAD-CELL GROUPS:      5
   NUMBER OF CELLS IN GENERAL-HEAD-CELL GROUPS......:   1828
   NUMBER OF GENERAL-HEAD-CELL FLOWS................:      5

 OBS1BAS6F -- OBSERVATION PROCESS (CONSTANT-HEAD BOUNDARY FLOW OBSERVATIONS)
 VERSION 1.0, 12/03/99
 INPUT READ FROM UNIT 755
 #           CoverageGUID ObjectType ID X Y Time OBNAME
 #GMSCOMMENT 02ab374c-50cf-489c-aac0-5ddda85270f7 ARC 1 323933.01648044 7393719.5592444 1.0 chdf0
 #GMSCOMMENT 02ab374c-50cf-489c-aac0-5ddda85270f7 ARC 10 323879.02329704 7393719.5402884 1.0 chdf1
 #GMSCOMMENT 02ab374c-50cf-489c-aac0-5ddda85270f7 ARC 100 323339.09146305 7393719.3507287 1.0 chdf2
 #GMSCOMMENT 02ab374c-50cf-489c-aac0-5ddda85270f7 ARC 101 323333.09222045 7393719.3486224 1.0 chdf3
 #GMSCOMMENT 02ab374c-50cf-489c-aac0-5ddda85270f7 ARC 102 323327.09297785 7393719.3465162 1.0 chdf4
 #GMSCOMMENT 02ab374c-50cf-489c-aac0-5ddda85270f7 ARC 103 323321.09373525 7393719.34441 1.0 chdf5
 #GMSCOMMENT 02ab374c-50cf-489c-aac0-5ddda85270f7 ARC 104 323315.09449265 7393719.3423038 1.0 chdf6
 #GMSCOMMENT 02ab374c-50cf-489c-aac0-5ddda85270f7 ARC 105 323309.09525005 7393719.3401976 1.0 chdf7
 #GMSCOMMENT 02ab374c-50cf-489c-aac0-5ddda85270f7 ARC 106 323303.09600745 7393719.3380913 1.0 chdf8
 #GMSCOMMENT 02ab374c-50cf-489c-aac0-5ddda85270f7 ARC 107 323297.09676485 7393719.3359851 1.0 chdf9
 #GMSCOMMENT 02ab374c-50cf-489c-aac0-5ddda85270f7 ARC 108 323291.09752225 7393719.3338789 1.0 chdf10
 #GMSCOMMENT 02ab374c-50cf-489c-aac0-5ddda85270f7 ARC 109 323285.09827965 7393719.3317727 1.0 chdf11
 #GMSCOMMENT 02ab374c-50cf-489c-aac0-5ddda85270f7 ARC 11 323873.02405444 7393719.5381822 1.0 chdf12
 #GMSCOMMENT 02ab374c-50cf-489c-aac0-5ddda85270f7 ARC 110 323279.09903705 7393719.3296665 1.0 chdf13
 #GMSCOMMENT 02ab374c-50cf-489c-aac0-5ddda85270f7 ARC 111 323273.09979445 7393719.3275602 1.0 chdf14
 #GMSCOMMENT 02ab374c-50cf-489c-aac0-5ddda85270f7 ARC 112 323267.10055185 7393719.325454 1.0 chdf15
 #GMSCOMMENT 02ab374c-50cf-489c-aac0-5ddda85270f7 ARC 113 323261.10130925 7393719.3233478 1.0 chdf16
 #GMSCOMMENT 02ab374c-50cf-489c-aac0-5ddda85270f7 ARC 114 323255.10206665 7393719.3212416 1.0 chdf17
 #GMSCOMMENT 02ab374c-50cf-489c-aac0-5ddda85270f7 ARC 115 323249.10282405 7393719.3191354 1.0 chdf18
 #GMSCOMMENT 02ab374c-50cf-489c-aac0-5ddda85270f7 ARC 116 323243.10358145 7393719.3170291 1.0 chdf19
 #GMSCOMMENT 02ab374c-50cf-489c-aac0-5ddda85270f7 ARC 117 323237.10433885 7393719.3149229 1.0 chdf20
 #GMSCOMMENT 02ab374c-50cf-489c-aac0-5ddda85270f7 ARC 118 323231.10509625 7393719.3128167 1.0 chdf21
 #GMSCOMMENT 02ab374c-50cf-489c-aac0-5ddda85270f7 ARC 119 323225.10585365 7393719.3107105 1.0 chdf22
 #GMSCOMMENT 02ab374c-50cf-489c-aac0-5ddda85270f7 ARC 12 323867.02481184 7393719.536076 1.0 chdf23
 #GMSCOMMENT 02ab374c-50cf-489c-aac0-5ddda85270f7 ARC 120 323219.10661105 7393719.3086043 1.0 chdf24
 #GMSCOMMENT 02ab374c-50cf-489c-aac0-5ddda85270f7 ARC 121 323213.10736845 7393719.306498 1.0 chdf25
 #GMSCOMMENT 02ab374c-50cf-489c-aac0-5ddda85270f7 ARC 122 323207.10812585 7393719.3043918 1.0 chdf26
 #GMSCOMMENT 02ab374c-50cf-489c-aac0-5ddda85270f7 ARC 123 323201.10888325 7393719.3022856 1.0 chdf27
 #GMSCOMMENT 02ab374c-50cf-489c-aac0-5ddda85270f7 ARC 124 323195.10964065 7393719.3001794 1.0 chdf28
 #GMSCOMMENT 02ab374c-50cf-489c-aac0-5ddda85270f7 ARC 125 323191.60148944 7393721.7896642 1.0 chdf29
 #GMSCOMMENT 02ab374c-50cf-489c-aac0-5ddda85270f7 ARC 126 323191.09341105 7393727.2798236 1.0 chdf30
 #GMSCOMMENT 02ab374c-50cf-489c-aac0-5ddda85270f7 ARC 127 323191.09431408 7393733.2790665 1.0 chdf31
 #GMSCOMMENT 02ab374c-50cf-489c-aac0-5ddda85270f7 ARC 128 323191.09521712 7393739.2783094 1.0 chdf32
 #GMSCOMMENT 02ab374c-50cf-489c-aac0-5ddda85270f7 ARC 129 323191.09612015 7393745.2775523 1.0 chdf33
 #GMSCOMMENT 02ab374c-50cf-489c-aac0-5ddda85270f7 ARC 13 323861.02556924 7393719.5339698 1.0 chdf34
 #GMSCOMMENT 02ab374c-50cf-489c-aac0-5ddda85270f7 ARC 130 323191.09702318 7393751.2767952 1.0 chdf35
 #GMSCOMMENT 02ab374c-50cf-489c-aac0-5ddda85270f7 ARC 131 323191.09792621 7393757.2760381 1.0 chdf36
 #GMSCOMMENT 02ab374c-50cf-489c-aac0-5ddda85270f7 ARC 132 323191.09882924 7393763.275281 1.0 chdf37
 #GMSCOMMENT 02ab374c-50cf-489c-aac0-5ddda85270f7 ARC 133 323191.09973227 7393769.2745239 1.0 chdf38
 #GMSCOMMENT 02ab374c-50cf-489c-aac0-5ddda85270f7 ARC 134 323191.1006353 7393775.2737668 1.0 chdf39
 #GMSCOMMENT 02ab374c-50cf-489c-aac0-5ddda85270f7 ARC 135 323191.10153834 7393781.2730097 1.0 chdf40
 #GMSCOMMENT 02ab374c-50cf-489c-aac0-5ddda85270f7 ARC 136 323191.10244137 7393787.2722526 1.0 chdf41
 #GMSCOMMENT 02ab374c-50cf-489c-aac0-5ddda85270f7 ARC 137 323191.1033444 7393793.2714955 1.0 chdf42
 #GMSCOMMENT 02ab374c-50cf-489c-aac0-5ddda85270f7 ARC 138 323191.10424743 7393799.2707384 1.0 chdf43
 #GMSCOMMENT 02ab374c-50cf-489c-aac0-5ddda85270f7 ARC 139 323191.10515046 7393805.2699813 1.0 chdf44
 #GMSCOMMENT 02ab374c-50cf-489c-aac0-5ddda85270f7 ARC 14 323855.02632664 7393719.5318636 1.0 chdf45
 #GMSCOMMENT 02ab374c-50cf-489c-aac0-5ddda85270f7 ARC 140 323191.10605349 7393811.2692242 1.0 chdf46
 #GMSCOMMENT 02ab374c-50cf-489c-aac0-5ddda85270f7 ARC 141 323191.10695652 7393817.2684671 1.0 chdf47
 #GMSCOMMENT 02ab374c-50cf-489c-aac0-5ddda85270f7 ARC 142 323191.10785955 7393823.26771 1.0 chdf48
 #GMSCOMMENT 02ab374c-50cf-489c-aac0-5ddda85270f7 ARC 143 323191.10876259 7393829.2669529 1.0 chdf49
 #GMSCOMMENT 02ab374c-50cf-489c-aac0-5ddda85270f7 ARC 144 323191.10966562 7393835.2661958 1.0 chdf50
 #GMSCOMMENT 02ab374c-50cf-489c-aac0-5ddda85270f7 ARC 145 323191.11056865 7393841.2654387 1.0 chdf51
 #GMSCOMMENT 02ab374c-50cf-489c-aac0-5ddda85270f7 ARC 146 323191.11147168 7393847.2646816 1.0 chdf52
 #GMSCOMMENT 02ab374c-50cf-489c-aac0-5ddda85270f7 ARC 147 323191.11237471 7393853.2639245 1.0 chdf53
 #GMSCOMMENT 02ab374c-50cf-489c-aac0-5ddda85270f7 ARC 148 323191.11327774 7393859.2631674 1.0 chdf54
 #GMSCOMMENT 02ab374c-50cf-489c-aac0-5ddda85270f7 ARC 149 323191.11418077 7393865.2624103 1.0 chdf55
 #GMSCOMMENT 02ab374c-50cf-489c-aac0-5ddda85270f7 ARC 15 323849.02708404 7393719.5297573 1.0 chdf56
 #GMSCOMMENT 02ab374c-50cf-489c-aac0-5ddda85270f7 ARC 150 323191.11508381 7393871.2616532 1.0 chdf57
 #GMSCOMMENT 02ab374c-50cf-489c-aac0-5ddda85270f7 ARC 151 323191.11598684 7393877.2608961 1.0 chdf58
 #GMSCOMMENT 02ab374c-50cf-489c-aac0-5ddda85270f7 ARC 152 323191.11688987 7393883.260139 1.0 chdf59
 #GMSCOMMENT 02ab374c-50cf-489c-aac0-5ddda85270f7 ARC 153 323191.1177929 7393889.2593819 1.0 chdf60
 #GMSCOMMENT 02ab374c-50cf-489c-aac0-5ddda85270f7 ARC 154 323191.11869593 7393895.2586248 1.0 chdf61
 #GMSCOMMENT 02ab374c-50cf-489c-aac0-5ddda85270f7 ARC 155 323191.11959896 7393901.2578677 1.0 chdf62
 #GMSCOMMENT 02ab374c-50cf-489c-aac0-5ddda85270f7 ARC 156 323191.12050199 7393907.2571106 1.0 chdf63
 #GMSCOMMENT 02ab374c-50cf-489c-aac0-5ddda85270f7 ARC 157 323191.12140502 7393913.2563535 1.0 chdf64
 #GMSCOMMENT 02ab374c-50cf-489c-aac0-5ddda85270f7 ARC 158 323191.12230806 7393919.2555964 1.0 chdf65
 #GMSCOMMENT 02ab374c-50cf-489c-aac0-5ddda85270f7 ARC 159 323191.12321109 7393925.2548393 1.0 chdf66
 #GMSCOMMENT 02ab374c-50cf-489c-aac0-5ddda85270f7 ARC 16 323843.02784144 7393719.5276511 1.0 chdf67
 #GMSCOMMENT 02ab374c-50cf-489c-aac0-5ddda85270f7 ARC 160 323191.12411412 7393931.2540823 1.0 chdf68
 #GMSCOMMENT 02ab374c-50cf-489c-aac0-5ddda85270f7 ARC 161 323191.12501715 7393937.2533252 1.0 chdf69
 #GMSCOMMENT 02ab374c-50cf-489c-aac0-5ddda85270f7 ARC 162 323191.12592018 7393943.2525681 1.0 chdf70
 #GMSCOMMENT 02ab374c-50cf-489c-aac0-5ddda85270f7 ARC 163 323191.12682321 7393949.251811 1.0 chdf71
 #GMSCOMMENT 02ab374c-50cf-489c-aac0-5ddda85270f7 ARC 164 323191.12772624 7393955.2510539 1.0 chdf72
 #GMSCOMMENT 02ab374c-50cf-489c-aac0-5ddda85270f7 ARC 165 323191.12862928 7393961.2502968 1.0 chdf73
 #GMSCOMMENT 02ab374c-50cf-489c-aac0-5ddda85270f7 ARC 166 323191.12953231 7393967.2495397 1.0 chdf74
 #GMSCOMMENT 02ab374c-50cf-489c-aac0-5ddda85270f7 ARC 167 323191.13043534 7393973.2487826 1.0 chdf75
 #GMSCOMMENT 02ab374c-50cf-489c-aac0-5ddda85270f7 ARC 168 323191.13133837 7393979.2480255 1.0 chdf76
 #GMSCOMMENT 02ab374c-50cf-489c-aac0-5ddda85270f7 ARC 169 323191.1322414 7393985.2472684 1.0 chdf77
 #GMSCOMMENT 02ab374c-50cf-489c-aac0-5ddda85270f7 ARC 17 323837.02859884 7393719.5255449 1.0 chdf78
 #GMSCOMMENT 02ab374c-50cf-489c-aac0-5ddda85270f7 ARC 170 323191.13314443 7393991.2465113 1.0 chdf79
 #GMSCOMMENT 02ab374c-50cf-489c-aac0-5ddda85270f7 ARC 171 323191.13404746 7393997.2457542 1.0 chdf80
 #GMSCOMMENT 02ab374c-50cf-489c-aac0-5ddda85270f7 ARC 172 323191.13495049 7394003.2449971 1.0 chdf81
 #GMSCOMMENT 02ab374c-50cf-489c-aac0-5ddda85270f7 ARC 173 323191.13585353 7394009.24424 1.0 chdf82
 #GMSCOMMENT 02ab374c-50cf-489c-aac0-5ddda85270f7 ARC 174 323191.13675656 7394015.2434829 1.0 chdf83
 #GMSCOMMENT 02ab374c-50cf-489c-aac0-5ddda85270f7 ARC 175 323191.13765959 7394021.2427258 1.0 chdf84
 #GMSCOMMENT 02ab374c-50cf-489c-aac0-5ddda85270f7 ARC 176 323191.13856262 7394027.2419687 1.0 chdf85
 #GMSCOMMENT 02ab374c-50cf-489c-aac0-5ddda85270f7 ARC 177 323191.13946565 7394033.2412116 1.0 chdf86
 #GMSCOMMENT 02ab374c-50cf-489c-aac0-5ddda85270f7 ARC 178 323191.14036868 7394039.2404545 1.0 chdf87
 #GMSCOMMENT 02ab374c-50cf-489c-aac0-5ddda85270f7 ARC 179 323191.14127171 7394045.2396974 1.0 chdf88
 #GMSCOMMENT 02ab374c-50cf-489c-aac0-5ddda85270f7 ARC 18 323831.02935624 7393719.5234387 1.0 chdf89
 #GMSCOMMENT 02ab374c-50cf-489c-aac0-5ddda85270f7 ARC 180 323191.14217475 7394051.2389403 1.0 chdf90
 #GMSCOMMENT 02ab374c-50cf-489c-aac0-5ddda85270f7 ARC 181 323191.14307778 7394057.2381832 1.0 chdf91
 #GMSCOMMENT 02ab374c-50cf-489c-aac0-5ddda85270f7 ARC 182 323191.14398081 7394063.2374261 1.0 chdf92
 #GMSCOMMENT 02ab374c-50cf-489c-aac0-5ddda85270f7 ARC 183 323191.14488384 7394069.236669 1.0 chdf93
 #GMSCOMMENT 02ab374c-50cf-489c-aac0-5ddda85270f7 ARC 19 323825.03011364 7393719.5213325 1.0 chdf94
 #GMSCOMMENT 02ab374c-50cf-489c-aac0-5ddda85270f7 ARC 2 323927.01723784 7393719.5571382 1.0 chdf95
 #GMSCOMMENT 02ab374c-50cf-489c-aac0-5ddda85270f7 ARC 20 323819.03087104 7393719.5192262 1.0 chdf96
 #GMSCOMMENT 02ab374c-50cf-489c-aac0-5ddda85270f7 ARC 21 323813.03162844 7393719.51712 1.0 chdf97
 #GMSCOMMENT 02ab374c-50cf-489c-aac0-5ddda85270f7 ARC 22 323807.03238584 7393719.5150138 1.0 chdf98
 #GMSCOMMENT 02ab374c-50cf-489c-aac0-5ddda85270f7 ARC 23 323801.03314324 7393719.5129076 1.0 chdf99
 #GMSCOMMENT 02ab374c-50cf-489c-aac0-5ddda85270f7 ARC 24 323795.03390064 7393719.5108014 1.0 chdf100
 #GMSCOMMENT 02ab374c-50cf-489c-aac0-5ddda85270f7 ARC 25 323789.03465804 7393719.5086951 1.0 chdf101
 #GMSCOMMENT 02ab374c-50cf-489c-aac0-5ddda85270f7 ARC 26 323783.03541544 7393719.5065889 1.0 chdf102
 #GMSCOMMENT 02ab374c-50cf-489c-aac0-5ddda85270f7 ARC 27 323777.03617284 7393719.5044827 1.0 chdf103
 #GMSCOMMENT 02ab374c-50cf-489c-aac0-5ddda85270f7 ARC 28 323771.03693024 7393719.5023765 1.0 chdf104
 #GMSCOMMENT 02ab374c-50cf-489c-aac0-5ddda85270f7 ARC 29 323765.03768764 7393719.5002703 1.0 chdf105
 #GMSCOMMENT 02ab374c-50cf-489c-aac0-5ddda85270f7 ARC 3 323921.01799524 7393719.555032 1.0 chdf106
 #GMSCOMMENT 02ab374c-50cf-489c-aac0-5ddda85270f7 ARC 30 323759.03844504 7393719.498164 1.0 chdf107
 #GMSCOMMENT 02ab374c-50cf-489c-aac0-5ddda85270f7 ARC 31 323753.03920244 7393719.4960578 1.0 chdf108
 #GMSCOMMENT 02ab374c-50cf-489c-aac0-5ddda85270f7 ARC 32 323747.03995984 7393719.4939516 1.0 chdf109
 #GMSCOMMENT 02ab374c-50cf-489c-aac0-5ddda85270f7 ARC 33 323741.04071724 7393719.4918454 1.0 chdf110
 #GMSCOMMENT 02ab374c-50cf-489c-aac0-5ddda85270f7 ARC 34 323735.04147464 7393719.4897392 1.0 chdf111
 #GMSCOMMENT 02ab374c-50cf-489c-aac0-5ddda85270f7 ARC 35 323729.04223204 7393719.4876329 1.0 chdf112
 #GMSCOMMENT 02ab374c-50cf-489c-aac0-5ddda85270f7 ARC 36 323723.04298944 7393719.4855267 1.0 chdf113
 #GMSCOMMENT 02ab374c-50cf-489c-aac0-5ddda85270f7 ARC 37 323717.04374684 7393719.4834205 1.0 chdf114
 #GMSCOMMENT 02ab374c-50cf-489c-aac0-5ddda85270f7 ARC 38 323711.04450424 7393719.4813143 1.0 chdf115
 #GMSCOMMENT 02ab374c-50cf-489c-aac0-5ddda85270f7 ARC 39 323705.04526164 7393719.4792081 1.0 chdf116
 #GMSCOMMENT 02ab374c-50cf-489c-aac0-5ddda85270f7 ARC 4 323915.01875264 7393719.5529258 1.0 chdf117
 #GMSCOMMENT 02ab374c-50cf-489c-aac0-5ddda85270f7 ARC 40 323699.04601904 7393719.4771018 1.0 chdf118
 #GMSCOMMENT 02ab374c-50cf-489c-aac0-5ddda85270f7 ARC 41 323693.04677644 7393719.4749956 1.0 chdf119
 #GMSCOMMENT 02ab374c-50cf-489c-aac0-5ddda85270f7 ARC 42 323687.04753384 7393719.4728894 1.0 chdf120
 #GMSCOMMENT 02ab374c-50cf-489c-aac0-5ddda85270f7 ARC 43 323681.04829124 7393719.4707832 1.0 chdf121
 #GMSCOMMENT 02ab374c-50cf-489c-aac0-5ddda85270f7 ARC 44 323675.04904864 7393719.468677 1.0 chdf122
 #GMSCOMMENT 02ab374c-50cf-489c-aac0-5ddda85270f7 ARC 45 323669.04980604 7393719.4665707 1.0 chdf123
 #GMSCOMMENT 02ab374c-50cf-489c-aac0-5ddda85270f7 ARC 46 323663.05056344 7393719.4644645 1.0 chdf124
 #GMSCOMMENT 02ab374c-50cf-489c-aac0-5ddda85270f7 ARC 47 323657.05132084 7393719.4623583 1.0 chdf125
 #GMSCOMMENT 02ab374c-50cf-489c-aac0-5ddda85270f7 ARC 48 323651.05207824 7393719.4602521 1.0 chdf126
 #GMSCOMMENT 02ab374c-50cf-489c-aac0-5ddda85270f7 ARC 49 323645.05283564 7393719.4581459 1.0 chdf127
 #GMSCOMMENT 02ab374c-50cf-489c-aac0-5ddda85270f7 ARC 5 323909.01951004 7393719.5508195 1.0 chdf128
 #GMSCOMMENT 02ab374c-50cf-489c-aac0-5ddda85270f7 ARC 50 323639.05359304 7393719.4560396 1.0 chdf129