# MF2K-MT3DMS LINKER FILE
#
OUTPUT_FILE_NAME "E.hff"
OUTPUT_FILE_UNIT
OUTPUT_FILE_HEADER extended
OUTPUT_FILE_FORMAT unformatted
