GMS MT3D Simulation
15 November 2023
         5        99        97         1         2         2
   d  ft  mg
 T T T T T F F F F F
 1 0 0 0 0
       100 1.0000000           (10G15.6)         0
      30.235530      30.235530      30.235530      25.798902      21.499085      17.915904      14.929920      12.441600      10.368000       8.640000
       7.200000       6.000000       5.000000       6.000000       6.419964       6.419964       6.419964       6.419964       6.000000       5.000000
       6.000000       6.419964       6.419964       6.419964       6.419964       6.000000       5.000000       6.000000       6.419964       6.419964
       6.419964       6.419964       6.000000       5.000000       6.000000       6.419964       6.419964       6.419964       6.419964       6.000000
       5.000000       6.000000       6.419964       6.419964       6.419964       6.419964       6.000000       5.000000       6.000000       6.419964
       6.419964       6.419964       6.419964       6.000000       5.000000       6.000000       6.419964       6.419964       6.419964       6.419964
       6.000000       5.000000       6.000000       6.419964       6.419964       6.419964       6.419964       6.000000       5.000000       6.000000
       6.419964       6.419964       6.419964       6.419964       6.000000       5.000000       6.000000       6.419964       6.419964       6.419964
       6.419964       6.000000       5.000000       6.000000       7.200000       8.640000      10.368000      12.441600      14.929920      17.915904
      21.499085      25.798902      30.958682      37.150419      44.580502      53.496603      61.721826
       100 1.0000000           (10G15.6)         0
      49.455463      49.455463      49.455463      44.580502      37.150419      30.958682      25.798902      21.499085      17.915904      14.929920
      12.441600      10.368000       8.640000       7.200000       6.000000       5.000000       4.769177       4.769177       4.769177       4.769177
       4.769177       4.769177       5.000000       4.769177       4.769177       4.769177       4.769177       4.769177       4.769177       5.000000
       4.769177       4.769177       4.769177       4.769177       4.769177       4.769177       5.000000       4.769177       4.769177       4.769177
       4.769177       4.769177       4.769177       5.000000       4.769177       4.769177       4.769177       4.769177       4.769177       4.769177
       5.000000       4.769177       4.769177       4.769177       4.769177       4.769177       4.769177       5.000000       4.769177       4.769177
       4.769177       4.769177       4.769177       4.769177       5.000000       4.769177       4.769177       4.769177       4.769177       4.769177
       4.769177       5.000000       4.769177       4.769177       4.769177       4.769177       4.769177       4.769177       5.000000       4.769177
       4.769177       4.769177       4.769177       4.769177       4.769177       5.000000       6.000000       7.200000       8.640000      10.368000
      12.441600      14.929920      17.915904      21.499085      25.798902      30.958682      37.150419      40.048744      40.048744
       100 1.0000000           (10G15.6)        -1
     737.503296     737.491455     737.540649     737.655579     737.802185     737.932129     738.022156     738.075012     738.111755     738.143982
     738.172485     738.201477     738.225586     738.252502     738.291748     738.341003     738.375244     738.414185     738.456604     738.482666
     738.503174     738.520996     738.539673     738.550598     738.555664     738.559631     738.561707     738.563232     738.564697     738.567505
     738.572937     738.578247     738.585693     738.595398     738.607239     738.619995     738.633179     738.652649     738.669983     738.681396
     738.692139     738.701843     738.710693     738.713684     738.715271     738.709412     738.699280     738.688782     738.676025     738.658508
     738.629456     738.602783     738.566650     738.516479     738.476929     738.438232     738.397278     738.337708     738.288452     738.251587
     738.206970     738.172180     738.145569     738.125366     738.107666     738.090698     738.082397     738.076538     738.072327     738.069519
     738.067932     738.066956     738.065674     738.063477     738.060730     738.057190     738.051392     738.038818     738.025757     738.009766
     737.980225     737.952698     737.926697     737.897156     737.847107     737.790955     737.709290     737.607422     737.496704     737.379639
     737.303955     737.260620     737.224854     737.141479     737.098633     736.965210     736.641724
     737.276184     737.248169     737.268250     737.371704     737.533936     737.702209     737.861084     737.971313     738.055542     738.129822
     738.189331     738.240173     738.276733     738.310547     738.353027     738.398438     738.426147     738.456909     738.488586     738.508240
     738.523438     738.535889     738.548462     738.554382     738.557190     738.559143     738.559570     738.559509     738.559387     738.559326
     738.559875     738.560913     738.562683     738.565430     738.569153     738.573486     738.577271     738.582764     738.587708     738.591492
     738.595886     738.599976     738.603638     738.604309     738.602844     738.592041     738.581177     738.571045     738.560059     738.541138
     738.514893     738.495300     738.469421     738.436279     738.412842     738.389282     738.363892     738.325928     738.295166     738.271484
     738.240234     738.214111     738.192627     738.174744     738.156067     738.133118     738.119629     738.107727     738.095703     738.083801
     738.072510     738.063538     738.051392     738.038086     738.028259     738.016602     738.003113     737.981445     737.962952     737.942932
     737.907043     737.876526     737.851440     737.825195     737.782166     737.735596     737.664917     737.582581     737.492981     737.395508
     737.336060     737.328125     737.369141     737.290100     737.102600     736.896301     736.542175
     737.269775     737.252014     737.259521     737.319580     737.433533     737.565491     737.719055     737.839478     737.945007     738.033630
     738.102295     738.160400     738.200928     738.237732     738.280884     738.327271     738.355896     738.386108     738.417419     738.439026
     738.455139     738.469299     738.487183     738.499695     738.507751     738.516968     738.524109     738.529724     738.534302     738.538818
     738.544678     738.548401     738.551819     738.555298     738.558777     738.561951     738.563965     738.566101     738.567322     738.567505
     738.567139     738.568176     738.568237     738.564575     738.558594     738.548340     738.538818     738.529968     738.522400     738.510498
     738.491577     738.477356     738.458984     738.434937     738.417297     738.401917     738.385498     738.359253     738.336426     738.318176
     738.292480     738.268799     738.247437     738.228149     738.207031     738.177673     738.157532     738.138184     738.117126     738.095154
     738.073303     738.056824     738.034058     738.011108     737.996460     737.982239     737.967407     737.947815     737.933777     737.921387
     737.903015     737.887146     737.872559     737.857117     737.834290     737.804565     737.754639     737.686890     737.595947     737.462585
     737.345886     737.265137     737.211853     737.119873     737.020203     736.804932     736.484985
     737.289185     737.284851     737.300415     737.331604     737.405884     737.527588     737.655518     737.759766     737.864685     737.956055
     738.026855     738.083618     738.123840     738.163269     738.209656     738.256897     738.289978     738.327881     738.368347     738.394714
     738.415710     738.435547     738.459412     738.478027     738.491699     738.506714     738.518799     738.529053     738.538086     738.546448
     738.556335     738.563293     738.569580     738.576111     738.582275     738.588257     738.592102     738.595703     738.599121     738.600708
     738.600830     738.600464     738.600098     738.598083     738.595825     738.591858     738.587280     738.581970     738.575134     738.564087
     738.550842     738.539001     738.521912     738.500854     738.483521     738.465881     738.446228     738.420044     738.397278     738.377563
     738.352844     738.330627     738.309753     738.289734     738.266602     738.237244     738.214294     738.189575     738.162720     738.133484
     738.102478     738.076111     738.043518     738.013000     737.992554     737.975525     737.960510     737.945435     737.936523     737.931213
     737.926758     737.924500     737.922913     737.920959     737.916199     737.908630     737.891418     737.846680     737.770447     737.607300
     737.396667     737.219788     737.111816     737.077148     736.980225     736.717407     736.165771
     737.302185     737.280090     737.293213     737.344788     737.426453     737.519714     737.656677     737.762451     737.878235     737.975769
     738.049683     738.108398     738.149597     738.189514     738.238464     738.290161     738.328369     738.370972     738.416199     738.448242
     738.476807     738.504944     738.536011     738.556091     738.570374     738.585571     738.596802     738.605652     738.612976     738.619995
     738.627441     738.630859     738.633545     738.636108     738.638306     738.640137     738.641235     738.642578     738.643860     738.644897
     738.645935     738.647034     738.648438     738.649597     738.650696     738.651001     738.650208     738.648315     738.645447     738.639465
     738.628662     738.616455     738.598022     738.572021     738.548340     738.522583     738.493286     738.454407     738.421936     738.397461
     738.372070     738.353271     738.338623     738.326721     738.314819     738.300537     738.288330     738.273987     738.255798     738.231873
     738.200256     738.168457     738.124695     738.078308     738.044128     738.014526     737.987915     737.961731     737.946533     737.937439
     737.930725     737.927856     737.926575     737.925537     737.923340     737.918884     737.906311     737.875061     737.809387     737.660583
     737.450317     737.220459     737.047119     736.955994     736.746582     736.268982     735.786560
     737.291687     737.283386     737.296143     737.322205     737.432495     737.595215     737.752136     737.875122     737.993469     738.088562
     738.163086     738.226013     738.271729     738.315857     738.365417     738.415466     738.449402     738.483521     738.518494     738.541870
     738.561401     738.580505     738.608521     738.624939     738.632507     738.646057     738.657471     738.665894     738.671997     738.676331
     738.678772     738.678467     738.676514     738.674255     738.671814     738.669495     738.667542     738.665649     738.664551     738.664246
     738.664429     738.665222     738.667114     738.669312     738.671570     738.674377     738.676331     738.677368     738.677490     738.675598
     738.669495     738.660095     738.641479     738.610413     738.578857     738.543091     738.500793     738.444580     738.400208     738.370728
     738.345154     738.330505     738.322327     738.318115     738.316284     738.315308     738.314331     738.312012     738.307129     738.298218
     738.283936     738.265991     738.235718     738.198792     738.166138     738.132446     738.097900     738.058411     738.030090     738.006531
     737.981628     737.964966     737.952759     737.941650     737.926392     737.909546     737.881470     737.833801     737.761841     737.614929
     737.391296     737.092346     736.829773     736.611145     736.333679     735.906860     735.725647
     737.287170     737.272827     737.321167     737.426025     737.552368     737.737244     737.914551     738.047546     738.154236     738.240906
     738.312622     738.370300     738.410767     738.449829     738.495117     738.530884     738.550476     738.571594     738.592773     738.605347
     738.615723     738.625977     738.651306     738.669678     738.682007     738.695007     738.699829     738.700989     738.701233     738.700623
     738.699036     738.699219     738.697327     738.694580     738.690735     738.686218     738.682800     738.678589     738.675049     738.673340
     738.671936     738.670288     738.668762     738.668152     738.668030     738.668152     738.668213     738.667603     738.666077     738.661560
     738.652344     738.642212     738.622986     738.590576     738.561157     738.529358     738.493408     738.440186     738.400452     738.375305
     738.350220     738.334900     738.326233     738.321533     738.319031     738.317261     738.316345     738.315063     738.312256     738.307007
     738.298645     738.289063     738.270203     738.244995     738.224976     738.202393     738.175781     738.136963     738.106995     738.081970
     738.045593     738.018860     737.998352     737.978088     737.947205     737.915222     737.865906     737.790100     737.674500     737.459900
     737.182861     736.818115     736.476074     736.195496     735.958618     735.768555     735.713562
     737.296021     737.317871     737.394775     737.575684     737.742798     737.909973     738.069824     738.196045     738.287109     738.346863
     738.390015     738.421387     738.448547     738.478394     738.512512     738.540100     738.557556     738.575745     738.594238     738.606873
     738.622742     738.642334     738.665894     738.683533     738.693237     738.699951     738.704773     738.708496     738.711243     738.713684
     738.716736     738.719421     738.721436     738.721069     738.718811     738.716431     738.713745     738.708801     738.703003     738.697937
     738.693054     738.687866     738.681396     738.676025     738.671509     738.664917     738.659241     738.654419     738.648926     738.639832
     738.626465     738.613586     738.594177     738.567688     738.544373     738.519897     738.492554     738.455994     738.425415     738.403137
     738.380554     738.364319     738.352539     738.343689     738.337036     738.330261     738.325745     738.321716     738.317078     738.311218
     738.303284     738.294800     738.280151     738.260010     738.241821     738.223755     738.202759     738.172974     738.146118     738.119080
     738.083618     738.050598     738.026001     738.002075     737.962402     737.914246     737.839905     737.713928     737.548218     737.264648
     736.886719     736.463928     736.098083     735.832153     735.696533     735.655212     735.650391
     737.318848     737.386841     737.517029     737.687622     737.866150     738.014526     738.152527     738.255737     738.322083     738.379272
     738.421936     738.448669     738.465393     738.481750     738.504028     738.533081     738.550720     738.567505     738.591064     738.609375
     738.625732     738.642578     738.664063     738.678284     738.689514     738.702332     738.712952     738.721741     738.729248     738.735840
     738.743774     738.747803     738.750122     738.752136     738.753113     738.753479     738.752136     738.747986     738.744080     738.739624
     738.733521     738.726074     738.715820     738.707642     738.697937     738.685669     738.676270     738.667114     738.656677     738.642944
     738.626282     738.612305     738.593201     738.568848     738.548706     738.528748     738.506897     738.476868     738.452271     738.432983
     738.411133     738.394592     738.381470     738.370850     738.359985     738.348755     738.341492     738.334290     738.327148     738.319458
     738.310547     738.301880     738.287048     738.268738     738.254395     738.238586     738.219482     738.191162     738.165649     738.138184
     738.094604     738.053406     738.015442     737.974365     737.916321     737.843750     737.737000     737.576538     737.352722     736.998047
     736.552368     736.129578     735.810852     735.615479     735.550903     735.554993     735.555969
     737.341736     737.436096     737.594116     737.771667     737.927185     738.056152     738.178711     738.257507     738.313293     738.362732
     738.402100     738.432495     738.452881     738.472717     738.497131     738.525146     738.542847     738.563293     738.586121     738.602661
     738.617126     738.634277     738.659241     738.677612     738.691284     738.708801     738.722595     738.732361     738.739929     738.748840
     738.759033     738.766052     738.770874     738.774170     738.776245     738.777771     738.778198     738.778076     738.776001     738.773315
     738.769470     738.763794     738.753235     738.744202     738.734924     738.719238     738.706482     738.695496     738.683350     738.666199
     738.644470     738.629028     738.609009     738.583374     738.565125     738.546631     738.526855     738.497131     738.473633     738.456787
     738.435486     738.417908     738.403687     738.391968     738.380188     738.365295     738.356140     738.347656     738.338074     738.327393
     738.316101     738.306885     738.290710     738.268799     738.254700     738.238525     738.218567     738.186584     738.159729     738.131409
     738.081848     738.039185     738.000061     737.955933     737.879028     737.792175     737.639282     737.419678     737.145996     736.718445
     736.280884     735.890991     735.659973     735.533569     735.499207     735.503601     735.486084
     737.363342     737.478088     737.643677     737.819580     737.958252     738.074524     738.171875     738.241821     738.295044     738.340149
     738.375977     738.405029     738.426880     738.448730     738.476135     738.503479     738.520752     738.546265     738.572632     738.590149
     738.606750     738.624695     738.648010     738.668579     738.685303     738.702637     738.717590     738.731812     738.744019     738.754211
     738.766479     738.775635     738.783203     738.789307     738.794800     738.799622     738.801880     738.802551     738.802368     738.800598
     738.797241     738.792175     738.783997     738.776550     738.766602     738.751831     738.739563     738.727844     738.713806     738.693604
     738.670349     738.651855     738.631226     738.607361     738.587891     738.568665     738.547546     738.519104     738.496033     738.478027
     738.455139     738.437317     738.422668     738.409546     738.395264     738.379211     738.368347     738.357727     738.346863     738.334961
     738.322205     738.311035     738.293335     738.271301     738.252075     738.230225     738.202881     738.160400     738.120422     738.082581
     738.028748     737.975708     737.927734     737.875000     737.790100     737.681152     737.494568     737.255127     736.939026     736.502136
     736.062622     735.731628     735.581116     735.503418     735.488220     735.476807     735.439514
     737.377625     737.498291     737.677185     737.844055     737.969910     738.073975     738.163208     738.225830     738.274719     738.317444
     738.352234     738.381226     738.403992     738.426880     738.456299     738.486938     738.503601     738.528198     738.557434     738.576294
     738.591675     738.607117     738.632202     738.654297     738.673096     738.696838     738.715759     738.729919     738.742920     738.757507
     738.774475     738.785278     738.793762     738.801270     738.807739     738.812988     738.815491     738.816528     738.816467     738.815063
     738.812317     738.808228     738.801147     738.794556     738.785950     738.772461     738.760437     738.748169     738.734253     738.714661
     738.690918     738.672668     738.648804     738.620789     738.599792     738.580261     738.560669     738.534119     738.511841     738.493469
     738.470642     738.451599     738.435059     738.420288     738.405334     738.387695     738.375671     738.363953     738.352051     738.339661
     738.324585     738.310730     738.292786     738.266174     738.243347     738.225403     738.199097     738.151917     738.105957     738.056519
     737.976196     737.901062     737.833679     737.761841     737.659119     737.536011     737.353699     737.104919     736.778503     736.356873
     735.975098     735.678284     735.540405     735.485107     735.488098     735.462524     735.413208
     737.383179     737.518921     737.699341     737.857056     737.974609     738.071899     738.152832     738.211365     738.259155     738.303528
     738.339722     738.371399     738.393860     738.415833     738.442261     738.471191     738.489746     738.512512     738.539124     738.557983
     738.575439     738.594482     738.620667     738.645752     738.664673     738.688721     738.709290     738.727356     738.743042     738.758667
     738.778381     738.790100     738.799744     738.808167     738.814941     738.819702     738.822205     738.823730     738.823120     738.821594
     738.819397     738.815857     738.809326     738.802551     738.794373     738.779968     738.766785     738.754700     738.743591     738.727966
     738.703613     738.686096     738.662537     738.632263     738.610291     738.592346     738.574036     738.547119     738.523682     738.505615
     738.482422     738.461792     738.443848     738.427734     738.410828     738.390808     738.377808     738.365356     738.351990     738.338501
     738.324341     738.309326     738.287781     738.259033     738.230286     738.199646     738.167358     738.127930     738.091553     738.038330
     737.947754     737.868225     737.795105     737.714172     737.585999     737.462891     737.272400     737.005737     736.681335     736.297363
     735.945984     735.667236     735.530640     735.476868     735.490173     735.452271     735.400452
     737.386230     737.534607     737.714172     737.864868     737.977295     738.067139     738.144348     738.202454     738.250549     738.292847
     738.327576     738.357483     738.377930     738.397888     738.423706     738.454590     738.474548     738.496216     738.524292     738.544922
     738.564148     738.582520     738.608398     738.634277     738.654358     738.677063     738.699585     738.719849     738.737793     738.756775
     738.778381     738.791870     738.802673     738.811584     738.818665     738.823608     738.826111     738.827332     738.826721     738.825195
     738.822876     738.819092     738.812134     738.804871     738.796265     738.782532     738.771240     738.761658     738.751404     738.736511
     738.713074     738.696472     738.672546     738.642700     738.621399     738.603333     738.584473     738.556824     738.533569     738.514954
     738.491089     738.468994     738.450623     738.433167     738.414185     738.390808     738.376038     738.362244     738.348022     738.332703
     738.316833     738.302002     738.278564     738.248047     738.219177     738.185730     738.143494     738.078918     738.033447     737.986389
     737.910706     737.833008     737.754028     737.666382     737.532715     737.397705     737.195129     736.930298     736.612366     736.234314
     735.899597     735.688354     735.529480     735.470581     735.489685     735.439758     735.393372
     737.387085     737.544434     737.726074     737.868347     737.974304     738.059326     738.135010     738.191895     738.239014     738.281799
     738.314087     738.341553     738.361023     738.382813     738.411255     738.443481     738.460449     738.484924     738.514160     738.534180
     738.552612     738.568848     738.596741     738.621216     738.639587     738.666321     738.690186     738.711243     738.730103     738.750732
     738.776184     738.790771     738.802185     738.812073     738.819946     738.825256     738.827576     738.828674     738.828125     738.826538
     738.823914     738.819824     738.812378     738.805603     738.797913     738.784485     738.774231     738.765503     738.756104     738.741577
     738.717529     738.703735     738.679749     738.648071     738.628357     738.611084     738.592896     738.562439     738.539063     738.521973
     738.496887     738.472290     738.452698     738.436157     738.416016     738.388733     738.370667     738.356079     738.340576     738.324036
     738.307190     738.289368     738.267090     738.234253     738.206299     738.172058     738.127686     738.054565     737.992249     737.939758
     737.850098     737.773682     737.709229     737.628723     737.489197     737.350952     737.144592     736.878845     736.583862     736.196167
     735.869934     735.684631     735.541809     735.468689     735.482727     735.424255     735.390808
     737.390747     737.552246     737.731750     737.871094     737.972046     738.052490     738.122437     738.178711     738.227234     738.270691
     738.304016     738.331177     738.351563     738.373169     738.401489     738.430176     738.450684     738.475830     738.502563     738.522278
     738.539856     738.557556     738.584167     738.607971     738.628906     738.654846     738.678833     738.700745     738.721436     738.743896
     738.768738     738.785400     738.799316     738.810364     738.818726     738.824524     738.827271     738.828491     738.827820     738.826050
     738.823303     738.819336     738.812622     738.805725     738.797913     738.785889     738.775085     738.766479     738.757202     738.743225
     738.721497     738.706909     738.682556     738.652954     738.633850     738.616333     738.596619     738.566284     738.542358     738.523743
     738.499817     738.475281     738.453552     738.435059     738.413757     738.386414     738.365295     738.345947     738.328918     738.311890
     738.293274     738.270508     738.248108     738.213562     738.187134     738.151367     738.105713     738.035400     737.968079     737.910950
     737.825012     737.743225     737.667969     737.585205     737.455688     737.309082     737.104492     736.845459     736.552979     736.193420
     735.863586     735.683777     735.551697     735.465942     735.464355     735.406311     735.392151
     737.391296     737.556641     737.739075     737.871765     737.967346     738.045227     738.113464     738.170227     738.217896     738.261292
     738.295532     738.322815     738.342651     738.362854     738.391785     738.421265     738.441284     738.466248     738.494141     738.512695
     738.528259     738.545166     738.573181     738.596436     738.614441     738.643250     738.668823     738.691589     738.711853     738.734985
     738.762878     738.779419     738.794006     738.806580     738.816345     738.822815     738.825745     738.827209     738.826599     738.824890
     738.822266     738.818298     738.811279     738.804749     738.797668     738.785278     738.774597     738.766113     738.757629     738.744019
     738.721863     738.709290     738.684998     738.653992     738.635986     738.619141     738.600464     738.566345     738.542603     738.525146
     738.500671     738.474304     738.450562     738.432312     738.411621     738.380432     738.358643     738.337769     738.316345     738.296753
     738.276123     738.251526     738.225342     738.190186     738.165100     738.133606     738.087830     738.011414     737.945068     737.891418
     737.799255     737.717224     737.643982     737.563843     737.429382     737.285461     737.087646     736.840698     736.555908     736.181030
     735.868469     735.685120     735.563782     735.464783     735.439453     735.388733     735.394653
     737.392639     737.560242     737.743408     737.872009     737.963745     738.039429     738.106445     738.161926     738.210083     738.253357
     738.287048     738.315613     738.335754     738.355713     738.383301     738.414063     738.434387     738.458130     738.485352     738.502625
     738.519714     738.535522     738.562378     738.584778     738.603882     738.631653     738.657593     738.681519     738.703003     738.725830
     738.755493     738.773682     738.788330     738.801697     738.812256     738.819824     738.823181     738.824829     738.824646     738.823059
     738.820374     738.816345     738.809387     738.803284     738.796143     738.784058     738.773804     738.764832     738.756592     738.743103
     738.721619     738.709473     738.685242     738.654724     738.637024     738.620239     738.601563     738.565247     738.541626     738.524048
     738.499329     738.472534     738.447021     738.428345     738.406372     738.374084     738.351685     738.328552     738.303711     738.280151
     738.259583     738.232788     738.199524     738.169373     738.139954     738.113770     738.067322     737.990540     737.927368     737.872192
     737.779297     737.700012     737.627869     737.548218     737.410095     737.272888     737.081177     736.848816     736.564636     736.183960
     735.902222     735.692383     735.571716     735.467041     735.414001     735.375610     735.398376
     737.395447     737.566467     737.746216     737.872437     737.960388     738.032959     738.097046     738.151428     738.199829     738.242615
     738.276733     738.305969     738.327148     738.347961     738.374634     738.404602     738.426392     738.449280     738.473938     738.492676