GMS MT3D Simulation                                                              #  1. HEADNG(1)
31 October 2023                                                                  #  2. HEADNG(2)
        10        82       131         1         1         1                     #  3. NLAY, NROW, NCOL, NPER, NCOMP, MCOMP
   d  ft  kg                                                                     #  4. TUNIT, LUNIT, MUNIT
 T T T T T F F F F T                                                             #  5. TRNOP(10) (ADV, DSP, SSM, RCT, GCG
 1 0 0 0 0 0 0 0 0 0                                                             #  6. LAYCON(NLAY)
       100 1.0000000           (10G15.6)         0                               #  7. DELR(NCOL)
      47.420455      47.420455      47.420455      47.420455      47.420455      47.420455      47.420455      47.420455      47.420455      47.420455
      47.420455      47.420455      47.420455      47.420455      47.420455      47.420455      44.479339      40.435762      36.759784      33.417985
      30.379987      27.618170      25.107427      22.824934      20.749940      18.863582      17.148710      15.589737      14.172488      12.884080
      11.712800      10.648000       9.680000       8.800000       8.000000       8.800000       9.680000      10.648000      11.712800      12.884080
      14.172488      15.589737      17.148710      18.863582      20.749940      22.824934      25.107427      27.618170      30.379987      33.417985
      36.759784      40.435762      44.479339      47.781818      47.781818      47.781818      47.781818      47.781818      47.781818      47.781818
      47.781818      47.781818      47.781818      47.781818      47.781818      47.781818      47.781818      47.781818      47.781818      47.781818
      47.781818      47.781818      47.781818      47.781818      47.781818      47.781818      47.781818      47.781818      47.781818      47.781818
      47.781818      47.781818      47.781818      44.479339      40.435762      36.759784      33.417985      30.379987      27.618170      25.107427
      22.824934      20.749940      18.863582      17.148710      15.589737      14.172488      12.884080      11.712800      10.648000       9.680000
       8.800000       8.000000       8.800000       9.680000      10.648000      11.712800      12.884080      14.172488      15.589737      17.148710
      18.863582      20.749940      22.824934      25.107427      27.618170      30.379987      33.417985      36.759784      40.435762      44.479339
      48.927272      49.380000      49.380000      49.380000      49.380000      49.380000      49.380000      49.380000      49.380000      49.380000
      49.380000
       100 1.0000000           (10G15.6)         0                               #  8. DELC(NROW)
      48.753897      48.753897      48.753897      48.753897      48.753897      48.753897      48.753897      44.479339      40.435762      36.759784
      33.417985      30.379987      27.618170      25.107427      22.824934      20.749940      18.863582      17.148710      15.589737      14.172488
      12.884080      11.712800      10.648000       9.680000       8.800000       8.000000       8.800000       9.680000      10.648000      11.712800
      12.884080      14.172488      15.589737      17.148710      18.863582      18.875151      18.875151      18.875151      18.875151      18.875151
      18.875151      18.875151      18.875151      18.863582      17.148710      15.589737      14.172488      12.884080      11.712800      10.648000
       9.680000       8.800000       8.000000       8.800000       9.680000      10.648000      11.712800      12.884080      14.172488      15.589737
      17.148710      18.863582      20.749940      22.824934      25.107427      27.618170      30.379987      33.417985      36.759784      40.435762
      44.479339      46.207025      46.207025      46.207025      46.207025      46.207025      46.207025      46.207025      46.207025      46.207025
      46.207025      46.207025
       100 1.0000000           (10G15.6)        -1                               #  9. HTOP(NCOL, NROW)
     239.519821     241.582153     243.840561     244.824188     244.978683     244.890976     244.785904     244.977493     244.985733     244.401367
     242.818146     240.693954     238.091339     234.957809     235.988678     236.264877     236.090637     235.032349     235.412674     236.596512
     237.462143     238.256485     238.986526     239.329910     239.294205     239.214676     238.948410     238.571808     238.459763     238.046906
     237.964600     237.568359     237.454681     237.281342     236.933441     236.851151     236.653336     236.121643     235.980728     235.242096
     234.875519     234.142532     234.188614     235.962143     237.588867     238.801910     240.062836     241.285172     242.346542     243.185913
     243.179703     242.673965     243.056091     243.904114     243.758698     242.666748     241.331726     240.219940     240.293564     240.484299
     239.681595     238.028091     235.541504     234.234512     234.463959     234.531097     233.952759     232.820969     235.441818     237.644516
     238.636475     237.603683     235.795990     235.145218     237.623322     240.016388     241.597824     242.468079     242.064636     239.842392
     236.997482     234.054443     235.577164     240.102966     242.799088     244.549942     245.200851     245.816757     246.350861     246.788101
     247.103607     247.315216     247.207153     246.951584     246.842361     246.146637     245.995789     245.069489     244.984909     244.252533
     243.866714     243.806656     243.144241     242.715973     242.591995     241.585587     241.432602     240.214188     239.903519     237.732346
     236.600388     235.681915     234.370987     233.142548     232.057999     230.923889     229.590332     224.457825     222.013275     221.814362
     221.506516     221.329666     221.047470     220.304230     217.754410     219.160110     233.008698     241.046585     243.328827     244.428864
     245.325241
     240.311050     241.817566     243.379669     244.201645     244.158859     243.828140     243.691238     243.928604     244.225769     243.929504
     242.569382     240.545898     238.203323     235.425461     234.201324     234.412933     234.714569     234.181534     235.174744     235.964035
     236.656174     237.165894     237.481918     237.687134     237.735382     237.660004     237.402802     237.096848     236.880768     236.442642
     236.274490     235.912430     235.605957     235.525375     235.130341     234.892303     234.801147     234.243240     234.028336     233.437210
     232.894089     233.345551     233.592575     235.497879     236.707275     237.607620     238.650879     239.908859     241.003540     241.623154
     241.380722     240.796173     241.694580     242.827118     242.572601     241.726059     240.584015     239.081375     238.984375     239.220917
     238.817429     237.951004     235.876740     233.227936     232.696075     232.890579     232.469086     231.539642     234.622864     236.244308
     236.904388     236.349457     234.818344     234.920227     236.971619     238.639664     240.049088     240.652939     240.356415     238.287460
     235.868362     231.941910     234.052368     237.970154     241.529221     243.476349     244.352448     244.949661     245.477310     245.917801
     246.241608     246.435883     246.371078     246.143631     245.874634     245.286484     244.943939     244.319183     244.002365     243.440643
     242.961655     242.702652     242.127472     241.529587     241.104477     239.991287     239.293884     237.819153     236.847534     235.163055
     234.437866     233.712173     232.988800     232.212723     231.326920     230.442871     229.183090     224.690506     222.006516     221.526581
     221.293259     221.045044     220.436813     219.555115     215.194824     227.971649     235.273544     238.062042     237.530716     239.299698
     244.260086
     239.081985     240.098251     241.401794     242.698929     242.827866     241.884506     241.650070     242.720123     243.324158     243.108795
     242.002777     240.444595     238.283035     235.549561     233.598648     232.768173     232.811310     233.564560     234.862289     235.760773
     236.294144     236.602631     236.765305     236.739868     236.585098     236.432022     236.156906     235.772751     235.589188     235.149414
     234.968216     234.531509     234.298019     234.022980     233.542953     233.292877     233.012390     232.450180     232.218918     232.223679
     232.332825     233.064728     233.652679     234.602661     235.458923     236.366211     237.481857     238.721405     239.873108     240.489044
     240.415070     240.214539     240.975189     241.678268     241.537796     240.839935     239.480896     237.804459     237.707306     238.111465
     238.100601     237.376022     235.608414     232.775711     231.664993     231.675583     230.351028     231.041016     233.144012     234.454330
     234.961197     234.589737     233.654953     234.154404     235.732773     237.210052     238.528778     239.197861     238.809738     237.224106
     234.689178     229.807205     232.360123     236.898178     239.682816     242.056702     243.079483     243.881363     244.357361     244.756485
     245.124832     245.461548     245.721481     245.374786     245.184616     244.733414     244.587875     243.848282     243.711960     242.905075
     242.338852     242.206223     241.367783     240.662704     240.364410     238.628128     238.119064     236.027786     235.279907     233.962326
     233.338867     232.729691     232.024979     231.081619     230.307449     229.864365     228.457458     223.415512     221.669601     221.246338
     221.026657     220.582657     219.253494     215.418701     219.158051     226.484634     228.776169     229.426071     232.060120     236.533173
     240.365021
     232.938446     235.697708     239.100449     240.509171     241.139084     240.271027     239.550293     241.311035     241.976196     241.769119
     240.969650     239.393951     236.959824     233.233002     230.724350     231.147156     232.390137     233.823471     234.792221     235.553146
     235.833588     235.781189     235.553146     235.525116     235.496613     235.436615     235.174683     234.759995     234.560593     233.933441
     233.779816     233.250458     232.867798     232.747986     231.831039     231.356201     231.346756     231.149216     231.048233     231.754837
     232.339661     232.774704     232.994888     233.756836     234.384216     235.105804     236.267944     237.674911     238.567322     238.840714
     238.677826     239.064240     240.477463     241.149887     240.779984     240.100494     238.856369     237.478622     237.042328     237.209503
     237.379349     236.939667     235.435837     233.244995     230.738144     229.466995     228.833130     230.133514     232.039810     233.002167
     233.413712     233.050018     232.293442     233.688843     235.246048     236.619278     237.632050     237.974869     237.546173     235.766296
     232.787659     227.478149     231.444199     235.083832     237.820633     239.642288     240.656891     241.683289     242.626007     243.405121
     244.037186     244.522736     244.845215     244.864944     244.793030     244.333969     244.104431     243.221451     242.932983     242.122162
     241.342361     241.117203     240.111359     238.929718     238.549271     236.615891     235.768387     234.504074     233.835281     232.813477
     232.227158     231.412903     229.043182     226.392548     226.654709     227.037994     225.185974     221.417053     220.720215     220.621948
     220.508835     219.988739     216.058701     220.250885     222.327606     225.988464     229.163116     232.615036     239.393860     242.505219
     241.639862
     226.965744     229.440384     238.020050     239.728592     240.043625     238.512146     237.967392     240.260117     241.157272     241.006409
     239.913498     238.124741     235.866013     231.205414     228.978928     231.237183     232.086090     233.752808     234.854065     235.391251
     235.473633     235.362045     235.216095     234.986526     234.785858     234.577347     234.243103     233.810074     233.423172     232.942825
     232.586502     231.956161     231.300293     230.887711     230.114792     229.458633     229.525177     230.235641     230.712921     231.370468
     232.011505     232.478699     232.853577     233.465363     234.078476     234.788925     235.736221     236.785416     237.486832     237.532135
     237.169769     237.682663     238.964569     239.706924     239.469437     238.824905     237.753708     236.183228     235.230164     235.931870
     236.259857     236.227173     235.277786     233.845322     231.713791     228.711670     227.942429     228.961166     230.199692     231.201141
     231.626251     231.470627     231.683807     233.639954     235.035507     235.840302     236.344406     236.713333     235.198792     232.849045
     230.106461     225.135742     231.188217     234.078247     235.905060     237.561874     238.428665     239.651825     241.007431     242.067108
     242.930481     243.671860     244.070862     244.058105     244.111893     243.644424     243.367401     242.369766     241.986191     240.919479
     240.055084     239.637878     238.388657     237.100174     236.539062     235.156250     234.434601     233.298920     232.592239     231.274658
     229.877274     228.404022     226.561234     224.518967     223.921585     223.529510     221.409271     219.927002     219.890289     219.753677
     220.023071     219.710724     216.612961     219.439362     223.923233     232.131332     237.978851     241.622543     244.455643     245.336578
     245.402130
     224.908005     231.008453     237.868759     238.914200     239.003845     237.025314     233.971252     238.999680     239.793549     239.547531
     238.224854     236.715118     234.932449     229.068558     228.699677     230.023727     231.798447     233.515335     234.449402     234.987717
     235.040100     234.879135     234.535080     234.082260     233.719284     233.398941     232.782364     232.202560     231.883667     231.029266
     230.846817     229.756653     228.767685     228.731979     228.618134     228.468506     228.564789     229.636368     230.117798     230.898529
     231.851761     232.281921     232.626114     233.271027     233.854187     234.356094     234.955536     235.475281     235.827301     235.910919
     236.301178     236.897812     237.911545     238.485260     238.516922     237.921600     236.753677     235.220535     234.369141     235.017563
     235.808533     235.994080     235.541687     234.543198     232.767593     230.233261     227.842911     227.572433     228.068558     228.348984
     228.751465     230.447006     232.275482     233.487167     234.328156     234.649506     234.697250     235.215775     234.397675     229.856842
     225.282013     224.158752     230.162323     232.921814     234.062317     234.730850     235.011322     236.548981     238.344604     239.953522
     241.084610     241.853714     242.408142     242.350403     242.219620     241.775757     241.632690     240.367783     240.092178     238.872803
     237.319855     237.207642     236.263687     234.880112     234.722076     232.729965     232.092316     229.648285     228.500488     226.461014
     225.666870     224.357315     222.467438     222.138733     221.724777     221.237076     220.273361     219.558075     219.505020     219.534393
     219.823196     219.786301     216.988525     217.745117     217.182434     232.805222     243.718460     244.925888     245.790756     246.680038
     246.901367
     223.038269     226.690491     235.454529     238.587006     238.292831     235.954590     230.979614     237.971130     238.959518     238.660629
     237.583847     236.026886     234.026886     230.481354     227.881729     228.776367     230.963089     232.408447     233.225113     233.791092
     233.774017     233.544479     233.220108     232.853104     232.472885     231.979996     230.905563     229.804993     228.600800     227.893112
     227.286209     227.611694     227.794769     227.937698     228.554153     229.141312     229.327164     230.009460     230.540314     230.983459
     231.607971     231.987091     232.299454     232.753433     233.063156     233.349609     233.697937     233.951248     234.072800     234.261688
     234.842865     235.856171     236.773758     237.316360     237.321075     236.611740     235.276230     233.678879     233.143341     234.407089
     235.362503     235.589310     235.361908     234.955078     233.305649     231.512863     229.409546     226.269775     226.382812     226.812286
     228.959457     231.308014     232.647156     233.096588     233.308060     233.458801     233.713318     234.348495     234.206024     232.042023
     227.214371     224.065247     227.842957     231.580048     232.000992     230.545898     233.111923     235.161072     236.853363     238.240250
     239.473816     240.392258     240.770187     240.561783     240.271973     239.506943     238.945770     237.469666     236.583313     234.980362
     233.194870     232.326843     230.971451     229.124680     228.115051     226.422211     225.008728     224.106735     223.246628     222.584671
     222.313705     222.135986     221.914673     221.655228     221.229309     220.672028     220.120605     219.657654     219.507568     219.574280
     219.853256     219.845642     217.978958     214.805313     216.264023     222.746857     242.653122     246.383240     247.393097     248.396362
     249.358414
     221.382721     221.965546     224.492157     234.627762     236.962173     233.751587     226.650726     235.824860     238.108765     238.082764
     237.079483     235.457520     233.634811     231.260513     228.472336     226.952087     229.252243     231.333572     232.185104     232.523300
     232.532990     232.305435     232.056046     231.726562     231.211319     230.642929     228.724197     227.468613     226.449097     226.837494
     226.995041     227.619873     228.371246     228.514832     228.998230     229.480957     229.608002     230.120911     230.512802     230.828369
     231.343231     231.647095     231.989258     232.314575     232.487320     232.659912     232.811020     232.927002     233.095413     233.402618
     234.307388     235.177444     235.833481     236.119385     236.137222     235.330795     233.958435     232.040146     231.872009     233.279724
     234.420807     234.899857     234.911575     234.530884     232.964478     231.087799     229.296478     226.980804     225.463501     225.554977
     229.144302     231.425781     232.175705     232.288605     232.124283     231.660233     231.688400     232.297668     232.261139     231.820862
     227.947815     224.188751     224.175797     229.133835     227.555878     228.241486     232.431152     233.893753     234.984192     235.384552
     236.247498     237.536880     236.197357     234.731079     233.259949     230.096390     229.300781     226.793610     225.667297     225.919510
     225.468903     225.381531     225.392654     225.098877     225.053436     224.516312     224.287628     223.550323     223.109192     222.430084
     222.268814     221.976776     221.691940     221.431946     221.019150     220.535950     220.162643     219.703705     219.505875     219.572601
     219.796600     219.850693     219.260422     217.261032     216.816864     217.646927     235.219772     247.018158     248.169693     249.318878
     250.345032
     220.631348     220.686462     220.332596     226.167999     234.059387     233.153778     225.709961     234.433502     236.869934     237.054489
     236.177826     234.674744     233.340927     231.726929     229.498642     226.596710     227.041138     229.393692     230.529587     230.964752
     230.819183     230.369019     229.756363     229.111328     228.162384     226.847855     225.799850     225.984421     226.396027     227.097183
     227.677353     228.094620     228.636795     228.827576     229.107025     229.409851     229.563065     229.926437     230.232513     230.516006
     230.885818     231.130432     231.326080     231.532166     231.691742     231.799728     231.873779     231.873047     231.801956     231.726074
     232.334000     233.552231     234.488632     234.756256     235.008163     235.033035     233.251114     231.385620     231.073257     231.973740
     232.805267     233.223145     233.215195     232.680176     231.719284     230.291779     228.540848     226.779343     225.296478     225.022629
     228.794312     230.763351     231.510910     231.531021     231.090134     230.342041     230.276184     230.672836     229.827728     228.186859
     226.383316     223.169281     222.513229     225.356796     224.343964     226.312653     230.018692     230.575882     230.409317     230.041046
     229.881073     228.335007     226.468353     225.896988     225.398773     225.249146     225.134872     224.971390     224.896637     224.772949
     224.669388     224.629761     224.494217     224.342636     224.253464     223.966446     223.761429     223.504776     223.280258     222.793320
     222.460449     222.066940     221.679382     221.253906     220.841553     220.469345     220.101303     219.711670     219.498093     219.525574
     219.615158     219.659714     219.599503     217.800888     215.475494     216.325775     225.990921     245.074646     248.033569     248.979919
     249.543533
     220.066193     219.921982     219.538391     221.363281     226.247971     229.934448     224.054840     232.480560     235.249802     235.331741
     234.953918     233.945053     232.897629     231.667679     229.827728     227.341751     225.348160     226.630325     227.863281     228.548843
     228.592712     228.312622     227.824692     227.101013     226.335022     225.335022     225.486832     226.067078     226.827820     227.565063
     228.149780     228.415909     228.977722     229.032120     229.211578     229.459610     229.494720     229.744446     229.948807     230.111694
     230.457260     230.629181     230.821625     230.974411     231.022369     231.046066     231.031769     230.972321     230.913879     230.855423
     231.187393     231.754776     232.861740     233.499496     233.984879     234.435776     233.269073     231.316925     230.657806     231.046051
     231.606110     231.762726     231.454453     230.955078     230.274551     229.113464     227.839523     226.520172     225.062683     224.366119
     227.681198     229.549515     229.893784     229.732727     229.258606     228.380051     228.082764     227.843246     226.954346     225.685638
     223.702438     221.636826     221.243530     221.507523     221.345078     222.394760     223.222504     223.713715     224.761353     225.074081
     225.104691     224.934692     224.854034     224.761551     224.601410     224.476440     224.361908     224.242905     224.115158     224.049744
     223.880814     223.804245     223.766373     223.624237     223.539398     223.363419     223.139282     223.007217     222.794586     222.492401
     222.264343     221.885925     221.461029     221.055222     220.693512     220.402374     220.132492     219.740570     219.511703     219.449478
     219.460266     219.499146     219.545609     217.326614     215.185608     214.842682     217.532074     242.892593     247.385666     247.722198
     247.834351
     219.025986     219.449005     219.448700     219.089050     220.192688     223.435867     222.448746     229.602615     233.328491     233.756775
     233.410187     232.889297     232.423035     231.366257     230.008209     228.161179     225.091522     225.166031     225.866486     226.821732
     227.064896     226.870056     226.640503     226.275955     225.824203     225.055695     225.490356     226.143219     227.137497     227.869476
     228.469131     228.646225     229.094040     229.121368     229.235870     229.402664     229.417236     229.573608     229.718323     229.801392
     230.054520     230.134308     230.273987     230.352005     230.324936     230.299698     230.248032     230.111542     229.977448     229.756332
     230.032364     230.497803     231.358139     231.927505     232.587357     233.197815     232.759750     231.258621     230.086639     230.095474
     230.303940     230.249771     229.871613     229.343964     228.815536     228.048157     227.057831     226.042114     224.553772     224.148376
     226.672882     228.035583     227.967133     227.731735     227.388657     226.523773     225.923538     225.783875     224.957184     223.473495
     221.965729     221.063660     220.986908     220.997116     221.176804     222.055634     222.567169     223.066788     223.613113     224.080933
     224.250793     224.193298     224.148010     224.146866     224.091797     223.991302     223.904251     223.744614     223.610443     223.572464
     223.423615     223.377472     223.336502     223.168091     223.109573     222.959137     222.771896     222.672714     222.517075     222.318588
     222.180618     221.852951     221.442993     221.082153     220.732346     220.448975     220.197769     219.798920     219.519012     219.406052
     219.436600     219.329773     219.046555     217.775070     216.368271     215.917816     213.752228     240.849060     246.392792     246.430603
     246.456757
     217.600891     217.874695     218.419876     218.343307     218.788925     220.015701     221.433380     226.083649     231.362869     232.179749
     231.679153     231.760773     231.821854     231.015182     230.014801     228.608795     225.874725     224.512100     225.102127     225.712311
     225.842133     225.729736     225.562012     225.343872     225.102295     224.650040     225.469681     226.226181     227.527740     228.218597
     228.894882     228.968735     229.260925     229.284424     229.327530     229.429855     229.443420     229.464600     229.510468     229.529068
     229.623413     229.648743     229.724121     229.689133     229.655090     229.623306     229.479126     229.374435     229.112091     228.734543
     228.825333     229.275391     230.061493     230.634979     231.379547     232.216965     232.511887     231.057632     229.295441     229.182755
     229.169830     228.845078     228.436859     228.010345     227.617691     227.104935     226.388550     225.497284     224.231598     224.002182
     226.047028     226.683075     226.342911     226.136475     225.949600     225.346115     224.838150     224.416504     223.430984     222.234634
     221.360565     220.996384     220.985046     221.024765     221.248489     222.021362     222.554291     222.827805     223.084946     223.319199
     223.530670     223.588150     223.582169     223.584183     223.525360     223.450958     223.360992     223.283920     223.184357     223.176712
     223.095001     223.067474     223.038986     222.916046     222.878830     222.753845     222.614914     222.517105     222.386032     222.203827
     222.098068     221.827026     221.447464     221.155304     220.905212     220.611313     220.330261     219.907562     219.612152     219.567398
     219.574142     219.582062     219.608002     218.765091     217.220352     216.694046     213.174194     233.349991     245.234695     244.467209
     245.149811
     216.812393     217.369827     217.348297     217.781281     218.295441     219.094101     220.701599     223.185257     228.478333     230.014313
     230.196609     230.398834     230.949554     230.582809     229.847717     228.650269     225.447723     224.071732     224.255432     224.729095
     224.866394     224.802277     224.704117     224.541336     224.495026     224.585175     225.541489     226.360626     227.926407     228.426819
     229.014816     229.037582     229.184952     229.197617     229.229065     229.294662     229.304581     229.248672     229.190659     229.191940
     229.196869     229.192459     229.193680     229.097992     229.011414     228.895981     228.787369     228.690430     228.544525     228.327118
     228.282898     228.420609     228.779633     229.432968     230.316696     231.532364     232.285446     230.591873     228.559647     228.409729
     228.329025     227.945419     227.486725     226.994141     226.618073     226.301651     225.779297     224.995834     224.031815     223.922134
     225.428497     225.761734     225.374649     225.214386     225.103943     224.765320     224.335297     223.575226     222.583725     221.644592
     221.099899     221.025742     220.983871     221.034256     221.286942     221.912033     222.393875     222.672256     222.831268     222.896088
     222.976700     223.019379     223.077057     223.091171     223.043991     223.016754     222.944305     222.929352     222.868240     222.864288
     222.802383     222.770996     222.754532     222.658493     222.613815     222.531036     222.407333     222.324799     222.189484     222.011520
     221.906906     221.694351     221.405685     221.177444     220.942184     220.683746     220.402771     220.003815     219.860107     219.828232
     219.844299     219.841446     219.740356     219.429962     218.073318     216.851608     212.578827     228.590729     244.222519     239.891403
     244.220245