MT3DSUP
BTN "C.btn"
FLO "..\C_MODFLOW\C.hff"
ADV "C.adv"
DSP "C.dsp"
SSM "C.ssm"
RCT "C.rct"
TOB "C.tob"
GCG "C.gcg"
CHK Y
OUT "C.out"
CON "C.con"
DSS "C.dss"
SPC "chorume" 1 1
RUNOPTIONS 0 "Undefined"
GMSTOB_OPTIONS 0 1
ORIG    612086.0 3427318.45 128.02
ROTZ 0
LAYER   1
     28.5546      15.7122       8.8326       6.6196       5.3152       4.5953       5.1653       7.2590       8.1605      11.7665 
MAT
 5
 5
 5
 5
 5
 5
 5
 5
 5
 5
 5
 7
 6
 6
 6
 6
 6
 6
 6
 7
 7
 7
 6
 6
 6
 6
 6
 6
 4
 4
 4
 4
 4
 4
 4
 4
 4
 4
 4
 4
 4
 4
 4
 4
 4
 4
 4
 4
 4
 4
 4
 4
 4
 4
 4
 4
 4
 4
 7
 7
 7
 6
 6
 6
 6
 6
 6
 7
 7
 4
 6
 4
 4
 4
 4
 7
 8
 7
 7
 8
 4
 4
 4
 8
 8
 7
 7
 7
 8
 7
 7
 7
 6
 6
 6
 6
 6
 6
 6
 6
 6
 6
 6
 6
 6
 6
 6
 6
 6
 8
 8
 6
 6
 6
 8
 8
 8
 8
 8
 7
 6
 6
 6
 4
 6
 7
 6
 4
 4
 7
 7
 8
 5
 5
 5
 5
 5
 5
 5
 5
 7
 7
 7
 6
 6
 6
 6
 6
 6
 6
 7
 7
 7
 4
 4
 4
 4
 4
 4
 4
 4
 4
 4
 4
 4
 4
 4
 4
 4
 4
 4
 4
 4
 4
 4
 4
 4
 4
 4
 4
 4
 4
 4
 4
 4
 4
 4
 4
 4
 7
 7
 7
 4
 4
 4
 4
 4
 4
 7
 4
 4
 4
 4
 4
 4
 4
 7
 8
 7
 7
 4
 4
 4
 4
 4
 8
 7
 7
 7
 8
 7
 7
 7
 6
 6
 6
 6
 6
 6
 6
 6
 6
 6
 6
 6
 6
 6
 4
 8
 8
 8
 8
 8
 8
 8
 8
 8
 8
 8
 8
 7
 7
 6
 6
 6
 8
 6
 6
 6
 6
 7
 7
 8
 5
 5
 7
 5
 5
 5
 7
 8
 7
 7
 7
 8
 6
 6
 6
 6
 6
 6
 7
 7
 7
 6
 6
 6
 4
 4
 4
 4
 4
 4
 4
 4
 4
 4
 4
 4
 4
 4
 4
 4
 4
 4
 4
 4
 4
 4
 4
 4
 4
 4
 4
 4
 4
 4
 4
 4
 4
 4
 4
 4
 4
 4
 4
 4
 4
 4
 4
 4
 4
 4
 4
 4
 4
 4
 4
 8
 7
 7
 4
 4
 4
 4
 4
 8
 7
 7
 7
 8
 7
 7
 7
 4
 4
 4
 4
 4
 4
 4
 4
 4
 4
 4
 4
 4
 4
 8
 8
 8
 8
 8
 8
 8
 8
 8
 8
 8
 8
 8
 7
 7
 7
 6
 6
 6
 6
 6
 6
 6
 6
 4
 6
 6
 4
 4
 6
 6
 6
 6
 6
 7
 7
 6
 8
 6
 6
 6
 6
 6
 7
 7
 7
 7
 6
 6
 6
 6
 6
 6
 6
 6
 6
 6
 6
 6
 6
 6
 6
 6
 4
 4
 4
 4
 4
 4
 4
 4
 4
 4
 4
 4
 4
 4
 4
 4
 4
 4
 6
 4
 4
 4
 4
 4
 4
 4
 4
 4
 4
 4
 4
 4
 4
 4
 4
 4
 4
 4
 4
 4
 4
 4
 4
 4
 4
 4
 4
 7
 7
 7
 8
 7
 7
 4
 4
 4
 4
 4
 4
 4
 4
 4
 4
 4
 4
 4
 4
 8
 8
 8
 8
 8
 8
 8
 8
 8
 8
 8
 8
 8
 8
 7
 7
 7
 8
 6
 6
 6
 6
 6
 4
 4
 4
 4
 4
 6
 6
 6
 6
 6
 6
 6
 6
 7
 8
 8
 6
 6
 6
 6
 6
 7
 7
 7
 7
 8
 6
 6
 6
 6
 6
 6
 6
 6
 6
 6
 6
 6
 6
 6
 6
 6
 6
 6
 6
 6
 6
 6
 6
 4
 4
 4
 4
 4
 4
 4
 4
 6
 6
 4
 4
 4
 4
 4
 4
 4
 4
 4
 4
 4
 4
 4
 4
 4
 4
 4
 4
 4
 4
 4
 4
 4
 4
 4
 4
 4
 4
 4
 4
 7
 4
 4
 4
 4
 4
 4
 4
 4
 4
 4
 4
 4
 4
 4
 4
 7
 8
 8
 8
 8
 8
 8
 8
 8
 8
 8
 8
 8
 8
 8
 8
 8
 7
 7
 7
 6
 6
 6
 6
 6
 4
 4
 4
 4
 7
 4
 4
 6
 6
 4
 4
 6
 6
 6
 8
 8
 6
 6
 6
 6
 6
 6
 7
 7
 7
 6
 6
 6
 6
 6
 6
 6
 6
 6
 6
 6
 6
 6
 6
 6
 6
 6
 6
 6
 6
 6
 6
 6
 6
 6
 6
 6
 6
 6
 4
 4
 4
 4
 4
 4
 4
 4
 4
 4
 4
 4
 4
 4
 4
 4
 4
 4
 4
 4
 4
 4
 4
 4
 4
 4
 4
 4
 4
 4
 4
 8
 4
 4
 4
 6
 7
 7
 7
 4
 4
 4
 4
 4
 4
 4
 4
 4
 4
 4
 6
 6
 6
 7
 7
 7
 8
 8
 8
 8
 8
 8
 8
 8
 8
 8
 8
 8
 8
 7
 7
 7
 8
 6
 6
 6
 4
 4
 4
 4
 4
 7
 4
 4
 6
 4
 4
 8
 8
 6
 6
 8
 6
 6
 6
 6
 6
 8
 7
 7
 7
 7
 6
 6
 6
 6
 6
 6
 6
 6
 6
 6
 6
 6
 6
 6
 6
 6
 6
 6
 6
 6
 6
 6
 6
 6
 6
 6
 6
 6
 6
 6
 6
 6
 6
 4
 4
 4
 4
 4
 4
 4
 4
 4
 4
 4
 4
 4
 4
 4
 4
 4
 4
 6
 6
 6
 6
 6
 4
 6
 8
 8
 8
 6
 6
 6
 6
 7
 7
 7
 7
 4
 4
 4
 4
 4
 4
 4
 6
 6
 6
 7
 7
 7
 7
 7
 7
 7
 7
 7
 8
 8
 8
 8
 8
 8
 8
 8
 8
 8
 7
 7
 7
 6
 6
 6
 6
 4
 4
 4
 4
 4
 7
 8
 8
 4
 4
 4
 8
 8
 8
 8
 8
 6
 6
 6
 6
 6
 8
 7
 7
 7
 7
 7
 6
 6
 6
 6
 6
 6
 6
 6
 6
 6
 6
 6
 6
 6
 6
 6
 6
 6
 6
 6
 6
 6
 6
 6
 6
 6
 6
 6
 6
 6
 6
 6
 6
 6
 6
 6
 6
 4
 4
 4
 4
 4
 4
 4
 4
 4
 4
 4
 4
 4
 4
 4
 6
 6
 6
 6
 6
 8
 8
 8
 8
 7
 6
 6
 7
 7
 7
 7
 7
 7
 7
 7
 4
 4
 4
 4
 4
 4
 7
 7
 7
 7
 7
 6
 6
 6
 6
 6
 6
 8
 8
 8
 8
 8
 8
 8
 8
 7
 7
 7
 6
 6
 6
 6
 6
 4
 4
 4
 4
 7
 8
 8
 7
 8
 8
 8
 8
 8
 8
 8
 6
 6
 6
 6
 6
 6
 7
 7
 7
 7
 7
 7
 6
 6
 6
 6
 6
 6
 6
 6
 6
 6
 6
 6
 6
 6
 6
 6
 6
 6
 6
 6
 6
 6
 6
 6
 6
 6
 6
 6
 6
 6
 6
 6
 6
 6
 6
 6
 6
 6
 4
 4
 4
 4
 4
 4
 4
 4
 7
 4
 4
 4
 4
 4
 4
 4
 6
 6
 8
 8
 8
 6
 7
 6
 7
 7
 7
 7
 7
 7
 7
 7
 7
 6
 6
 6
 6
 6
 6
 6
 6
 6
 6
 6
 6
 6
 6
 6
 6
 6
 8
 8
 8
 8
 8
 8
 8
 8
 7
 7
 7
 4
 4
 4
 4
 6
 4
 4
 4
 4
 7
 8
 8
 8
 8
 8
 7
 8
 8
 8
 8
 6
 6
 6
 6
 6
 6
 7
 7
 7
 7
 7
 7
 6
 6
 8
 6
 6
 6
 6
 6
 6
 6
 6
 6
 6
 6
 6
 6
 6
 6
 6
 6
 6
 6
 6
 6
 6
 6
 6
 6
 6
 6
 6
 6
 6
 6
 6
 4
 4
 4
 4
 4
 4
 4
 4
 4
 4
 7
 7
 4
 4
 4
 4
 4
 4
 4
 4
 4
 8
 8
 8
 6
 6
 6
 6
 6
 6
 6
 7
 7
 6
 6
 6
 6
 6
 6
 6
 6
 6
 6
 6
 6
 6
 6
 6
 6
 6
 6
 6
 6
 8
 8
 8
 8
 8
 8
 8
 8
 7
 7
 7
 4
 4
 4
 4
 4
 8
 4
 4
 4
 8
 8
 8
 8
 7
 7
 7
 8
 8
 8
 8
 6
 6
 6
 6
 6
 8
 6
 7
 7
 7
 7
 7
 7
 7
 7
 8
 8
 7
 7
 7
 6
 6
 6
 6
 6
 6
 6
 6
 6
 6
 6
 6
 8
 6
 6
 6
 6
 6
 6
 6
 6
 6
 6
 6
 4
 4
 4
 4
 4
 4
 4
 4
 4
 4
 4
 4
 4
 7
 7
 4
 4
 4
 4
 4
 4
 4
 4
 7
 8
 8
 8
 8
 7
 6
 6
 6
 6
 6
 6
 6
 6
 6
 6
 6
 6
 6
 6
 6
 6
 6
 6
 6
 6
 6
 6
 6
 6
 6
 6
 6
 8
 8
 8
 8
 8
 8
 8
 8
 7
 7
 4
 4
 4
 4
 4
 4
 8
 8
 7
 7
 8
 8
 8
 8
 7
 7
 7
 8
 8
 8
 8
 6
 6
 6
 6
 6
 6
 8
 8
 6
 7
 7
 7
 6
 7
 7
 8
 8
 7
 7
 7
 6
 6
 6
 6
 6
 6
 6
 6
 6
 6
 8
 8
 8
 6
 6
 6
 6
 6
 6
 6
 6
 6
 6
 4
 4
 4
 4
 4
 4
 4
 4
 4
 4
 4
 4
 4
 4
 7
 7
 4
 4
 4
 4
 4
 4
 7
 7
 7
 8
 8
 8
 8
 7
 6
 6
 6
 6
 6
 6
 6
 6
 6
 6
 6
 6
 6
 6
 6
 6
 6
 6
 6
 6
 6
 6
 6
 6
 6
 8
 8
 8
 8
 8
 8
 8
 8
 8
 8
 7
 7
 4
 4
 4
 4
 4
 4
 6
 8
 7
 7
 8
 8
 8
 8
 7
 7
 7
 6
 8
 8
 8
 6
 6
 6
 7
 6
 6
 8
 8
 8
 8
 7
 7
 7
 7
 7
 8
 8
 7
 7
 7
 7
 7
 7
 6
 6
 6
 6
 6
 6
 6
 8
 8
 8
 8
 8
 8
 8
 8
 6
 6
 6
 6
 4
 4
 4
 4
 4
 4
 4
 4
 4
 4
 4
 4
 4
 4
 7
 7
 7
 4
 4
 4
 4
 4
 7
 7
 7
 7
 8
 8
 8
 8
 7
 6
 6
 6
 6
 6
 6
 6
 6
 6
 6
 6
 6
 6
 6
 6
 6
 6
 6
 6
 6
 6
 6
 6
 6
 6
 8
 8
 8
 8
 8
 8
 8
 8
 8
 8
 7
 7
 4
 4
 4
 4
 4
 4
 6
 8
 7
 7
 8
 8
 8
 8
 7
 7
 7
 6
 8
 8
 8
 6
 6
 8
 7
 6
 6
 8
 8
 8
 8
 7
 7
 7
 7
 6
 8
 8
 7
 7
 7
 7
 7
 7
 7
 7
 7
 7
 8
 8
 8
 8
 8
 8
 8
 8
 8
 8
 8
 6
 6
 4
 4
 4
 4
 4
 4
 4
 4
 4
 4
 4
 4
 4
 4
 4
 8
 7
 7
 7
 8
 4
 8
 8
 8
 7
 7
 7
 7
 8
 8
 8
 6
 6
 6
 6
 6
 6
 6
 6
 6
 6
 6
 6
 6
 6
 6
 6
 6
 6
 6
 6
 6
 6
 6
 6
 6
 6
 6
 8
 8
 8
 8
 8
 8
 8
 8
 8
 8
 7
 7
 4
 6
 4
 4
 4
 4
 4
 8
 6
 7
 8
 8
 8
 8
 7
 7
 7
 7
 7
 8
 8
 6
 6
 6
 7
 6
 6
 8
 8
 8
 8
 6
 7
 7
 6
 6
 8
 8
 6
 6
 6
 7
 7
 7
 7
 7
 7
 7
 8
 8
 8
 8
 8
 8
 8
 8
 8
 8
 8
 4
 4
 4
 4
 4
 4
 4
 4
 4
 4
 4
 4
 4
 4
 7
 7
 8
 8
 7
 7
 7
 8
 8
 8
 8
 8
 7
 7
 7
 6
 8
 8
 6
 6
 6
 6
 6
 6
 6
 6
 6
 6
 6
 6
 6
 6
 6
 6
 6
 6
 6
 6
 6
 6
 6
 6
 6
 8
 8
 8
 8
 8
 8
 8
 8
 8
 8
 8
 8
 8
 7
 7
 6
 6
 6
 6
 4
 4
 4
 6
 6
 6
 8
 8
 8
 8
 7
 7
 7
 7
 6
 7
 8
 6
 6
 6
 7
 6
 6
 8
 8
 8
 8
 8
 7
 6
 6
 6
 6
 6
 6
 6
 6
 7
 7
 7
 7
 7
 7
 7
 8
 8
 8
 8
 8
 8
 8
 8
 8
 8
 8
 8
 4
 4
 4
 4
 4
 4
 4
 4
 4
 4
 4
 4
 7
 7
 7
 8
 8
 7
 7
 7
 8
 8
 8
 8
 8
 7
 7
 7
 6
 6
 8
 6
 6
 6
 7
 8
 6
 6
 6
 6
 6
 6
 6
 6
 6
 6
 6
 6
 6
 6
 6
 6
 6
 6
 6
 6
 8
 8
 8
 8
 8
 8
 8
 8
 8
 8
 8
 8
 8
 7
 6
 6
 6
 6
 6
 6
 4
 4
 6
 6
 6
 8
 8
 8
 8
 7
 7
 7
 7
 7
 7
 7
 6
 6
 6
 6
 6
 6
 8
 8
 8
 8
 6
 6
 6
 6
 6
 6
 6
 6
 6
 6
 7
 7
 7
 7
 7
 7
 7
 8
 8
 8
 8
 8
 8
 8
 8
 8
 8
 8
 8
 4
 4
 4
 4
 4
 4
 4
 4
 4
 4
 4
 4
 7
 7
 7
 8
 8
 7
 7
 7
 6
 8
 8
 8
 8
 8
 7
 7
 6
 6
 8
 6
 6
 6
 7
 8
 6
 6
 6
 6
 6
 6
 6
 6
 6
 6
 6
 6
 6
 6
 6
 6
 6
 8
 8
 8
 8
 8
 8
 8
 8
 8
 8
 8
 8
 8
 8
 8
 8
 7
 6
 6
 6
 6
 6
 6
 6
 6
 6
 4
 6
 8
 8
 8
 8
 7
 7
 7
 7
 7
 7
 7
 6
 6
 6
 6
 6
 6
 8
 8
 8
 8
 6
 7
 6
 6
 6
 6
 6
 6
 6
 6
 7
 7
 7
 7
 7
 7
 7
 8
 8
 8
 8
 8
 8
 8
 8
 8
 8
 8
 8
 4
 4
 4
 4
 4
 4
 4
 4
 4
 4
 4
 7
 7
 7
 7
 8
 8
 7
 7
 7
 6
 8
 8
 8
 8
 8
 7
 7
 6
 6
 8
 6
 6
 6
 7
 8
 6
 6
 6
 6
 6
 6
 6
 6
 6
 6
 6
 6
 6
 6
 6
 6
 6
 8
 8
 8
 8
 8
 8
 8
 8
 8
 8
 8
 8
 8
 8
 8
 8
 7
 6
 6
 6
 6
 6
 6
 6
 6
 4
 4
 6
 8
 8
 8
 8
 7
 7
 7
 6
 7
 7
 7
 6
 6
 6
 6
 6
 6
 8
 8
 8
 8
 8
 6
 6
 6
 6
 6
 6
 6
 6
 6
 7
 7
 7
 7
 7
 7
 7
 8
 8
 8
 8
 8
 8
 8
 8
 8
 8
 8
 8
 8
 4
 8
 4
 4
 4
 4
 4
 4
 4
 4
 7
 7
 7
 7
 8
 8
 7
 7
 7
 8
 8
 8
 8
 8
 8
 7
 7
 6
 6
 8
 6
 6
 6
 6
 6
 6
 6
 6
 6
 6
 6
 6
 6
 6
 6
 6
 6
 6
 6
 7
 7
 7
 8
 8
 8
 8
 8
 8
 8
 8
 8
 8
 8
 8
 8
 6
 6
 6
 7
 6
 6
 6
 6
 6
 6
 6
 6
 6
 6
 4
 8
 8
 8
 8
 7
 7
 6
 7
 7
 7
 7
 6
 6
 6
 6
 6
 6
 8
 8
 8
 8
 8
 6
 6
 6
 6
 6
 6
 6
 6
 6
 6
 6
 6
 7
 7
 7
 7
 8
 8
 8
 8
 8
 8
 8
 8
 8
 8
 8
 8
 8
 8
 8
 8
 7
 4
 4
 4
 4
 4
 8
 7
 7
 7
 7
 8
 8
 7
 7
 7
 8
 8
 8
 8
 8
 8
 7
 6
 6
 6
 8
 6
 6
 6
 6
 6
 6
 6
 6
 6
 6
 6
 6
 6
 6
 6
 6
 6
 6
 6
 6
 6
 6
 8
 8
 8
 8
 8
 8
 8
 8
 8
 8
 8
 8
 8
 6
 6
 6
 6
 6
 6
 6
 6
 6
 6
 6
 6
 6
 4
 4
 8
 8
 8
 8
 7
 7
 6
 7
 7
 7
 7
 6
 6
 6
 6
 6
 8
 8
 8
 8
 8
 8
 6
 6
 6
 6
 6
 6
 6
 6
 6
 6
 6
 6
 7
 7
 7
 7
 8
 8
 8
 8
 8
 8
 8
 8
 8
 8
 8
 8
 8
 8
 8
 8
 7
 4
 4
 4
 4
 4
 8
 7
 7
 7
 7
 8
 8
 7
 7
 7
 8
 8
 8
 8
 8
 8
 7
 6
 6
 6
 8
 6
 6
 6
 6
 6
 6
 6
 6
 6
 6
 6
 6
 6
 6
 6
 6
 6
 6
 6
 6
 6
 6
 8
 8
 8
 8
 8
 8
 8
 8
 8
 8
 8
 8
 8
 6
 6
 6
 6
 6
 6
 6
 6
 6
 6
 6
 6
 6
 4
 4
 8
 8
 8
 8
 7
 7
 7
 7
 7
 7
 7
 6
 6
 6
 6
 6
 8
 8
 8
 8
 8
 8
 6
 6
 6
 6
 6
 6
 6
 6
 6
 7
 7
 7
 7
 7
 7
 7
 8
 8
 8
 8
 8
 8
 8
 8
 8
 8
 8
 8
 8
 8
 8
 8
 7
 4
 8
 8
 4
 8
 8
 7
 7
 7
 7
 8
 8
 8
 7
 7
 8
 8
 8
 8
 8
 8
 7
 6
 6
 6
 6
 6
 6
 6
 6
 6
 6
 6
 6
 6
 6
 6
 6
 6
 6
 6
 6
 6
 6
 6
 6
 6
 6
 8
 8
 8
 8
 8
 8
 8
 8
 8
 8
 8
 8
 6
 6
 6
 6
 6
 6
 6
 6
 6
 6
 6
 6
 6
 4
 4
 7
 8
 8
 8
 8
 7
 7
 7
 7
 7
 7
 7
 6
 6
 6
 6
 8
 8
 8
 8
 8
 8
 8
 6
 6
 6
 6
 6
 6
 6
 6
 6
 7
 7
 7
 7
 7
 7
 7
 8
 8
 8
 8
 8
 8
 8
 8
 8
 8
 8
 8
 8
 8
 8
 8
 7
 4
 8
 8
 8
 8
 8
 7
 7
 7
 7
 8
 8
 8
 7
 7
 8
 8
 8
 8
 8
 8
 7
 6
 6
 6
 6
 6
 6
 6
 6
 6
 6
 6
 6
 6
 6
 6
 6
 6
 6
 6
 6
 6
 6
 6
 6
 6
 6
 8
 8
 8
 8
 8
 8
 8
 8
 8
 8
 8
 8
 6
 6
 6
 6
 6
 6
 6
 6
 6
 6
 6
 6
 6
 4
 4
 7
 8
 8
 8
 8
 7
 6
 7
 7
 7
 7
 7
 6
 6
 6
 6
 8
 8
 8
 8
 8
 8
 8
 6
 6
 6
 6
 6
 6
 6
 6
 6
 7
 7
 7
 6
 6
 6
 6
 6
 6
 6
 8
 8
 8
 8
 8
 8
 8
 8
 8
 8
 8
 8
 8
 7
 7
 8
 8
 8
 8
 8
 7
 7
 7
 7
 8
 8
 8
 7
 7
 8
 8
 8
 8
 8
 8
 7
 6
 6
 6
 6
 6
 6
 6
 6
 6
 6
 6
 6
 6
 6
 6
 6
 6
 6
 6
 6
 6
 6
 6
 6
 6
 6
 8
 8
 8
 8
 8
 8
 8
 8
 8
 8
 8
 8
 6
 6
 6
 6
 6
 6
 6
 6
 6
 6
 6
 6
 6
 4
 4
 7
 8
 8
 8
 8
 7
 6
 7
 7
 7
 7
 7
 6
 6
 6
 6
 8
 8
 8
 8
 8
 8
 8
 6
 6
 6
 6
 6
 6
 6
 6
 6
 7
 7
 7
 6
 6
 6
 6
 6
 6
 6
 8
 8
 8
 8
 8
 8
 8
 8
 8
 8
 8
 8
 8
 8
 8
 8
 8
 8
 8
 8
 7
 7
 7
 7
 8
 8
 8
 7
 7
 8
 8
 8
 8
 8
 8
 7
 6
 6
 6
 6
 6
 6
 6
 6
 6
 6
 6
 6
 6
 6
 6
 6
 6
 6
 6
 6
 6
 6
 6
 6
 6
 6
 8
 8
 8
 8
 8
 8
 8
 8
 8
 8
 8
 8
 6
 6
 6
 6
 6
 6
 6
 6
 6
 6
 6
 6
 6
 4
 7
 7
 8
 8
 8
 8
 7
 6
 7
 7
 7
 7
 8
 6
 6
 6
 6
 8
 8
 8
 8
 8
 8
 8
 6
 6
 6
 6
 6
 6
 6
 6
 6
 7
 7
 7
 6
 6
 6
 6
 6
 6
 6
 8
 8
 8
 8
 8
 8
 8
 8
 8
 8
 8
 8
 8
 8
 8
 8
 8
 8
 8
 8
 7
 7
 7
 7
 8
 8
 8
 7
 7
 8
 8
 8
 8
 8
 8
 7
 6
 6
 6
 6
 6
 6
 6
 6
 6
 6
 6
 6
 6
 6
 6
 6
 6
 6
 6
 6
 6
 6
 6
 6
 6
 6
 8
 8
 8
 8
 8
 8
 8
 8
 8
 8
 8
 8
 6
 6
 6
 6
 6
 6
 6
 6
 6
 6
 6
 6
 6
 4
 7
 7
 8
 8
 8
 8
 7
 6
 7
 7
 7
 7
 6
 8
 6
 6
 6
 8
 8
 8
 8
 8
 8
 8
 6
 6
 6
 6
 6
 6
 6
 6
 6
 7
 7
 7
 6
 6
 6
 6
 6
 6
 6
 8
 8
 8
 8
 8
 8
 8
 8
 8
 8
 8
 8
 8
 8
 8
 8
 8
 8
 8
 8
 7
 7
 8
 7
 8
 8
 8
 7
 7
 8
 8
 8
 8
 8
 8
 7
 6
 6
 6
 6
 6
 6
 6
 6
 6
 6
 6
 6
 6
 6
 6
 8
 8
 6
 6
 6
 6
 6
 6
 8
 8
 8
 8
 8
 8
 8
 8
 8
 8
 8
 8
 8
 8
 8
 6
 6
 6
 6
 6
 6
 6
 6
 6
 6
 4
 4
 6
 4
 7
 7
 8
 8
 8
 8
 7
 6
 7
 7
 7
 7
 6
 8
 6
 6
 6
 8
 8
 8
 8
 8
 8
 8
 6
 6
 6
 6
 6
 6
 6
 6
 6
 7
 7
 7
 6
 6
 6
 6
 6
 6
 6
 8
 8
 8
 8
 8
 8
 8
 8
 8
 8
 8
 8
 8
 8
 8
 8
 8
 8
 8
 8
 7
 7
 8
 7
 8
 8
 8
 7
 7
 8
 8
 8
 8
 8
 8
 7
 6
 6
 6
 6
 6
 6
 6
 6
 6
 6
 6
 6
 6
 6
 6
 8
 8
 6
 6
 6
 6
 6
 6
 8
 8
 8
 8
 8
 8
 8
 8
 8
 8
 8
 8
 8
 8
 8
 6
 6
 6
 6
 6
 6
 6
 6
 6
 6
 4
 4
 6
 4
 7
 7
 8
 8
 8
 8
 7
 6
 7
 7
 7
 7
 6
 8
 6
 6
 6
 8
 8
 8
 8
 8
 8
 8
 6
 6
 6
 6
 6
 6
 6
 6
 6
 7
 7
 7
 6
 6
 6
 6
 6
 6
 6
 8
 8
 8
 8
 8
 8
 8
 8
 8
 8
 8
 8
 8
 8
 8
 8
 8
 8
 8
 8
 7
 7
 8
 7
 8
 8
 8
 7
 7
 8
 8
 8
 8
 8
 8
 7
 6
 6
 6
 6
 6
 6
 6
 6
 6
 6
 6
 6
 6
 6
 6
 8
 8
 6
 6
 6
 6
 6
 6
 8
 8
 8
 8
 8
 8
 8
 8
 8
 8
 8
 8
 8
 8
 8
 6
 6
 6
 6
 6
 6
 6
 6
 6
 6
 4
 4
 6
 4
 7
 7
 8
 8
 8
 8
 7
 6
 7
 7
 7
 7
 6
 8
 6
 6
 6
 8
 8
 8
 8
 8
 8
 6
 6
 6
 6
 6
 6
 6
 6
 6
 6
 6
 6
 6
 6
 6
 6
 6
 6
 6
 6
 8
 8
 8
 8
 8
 8
 8
 8
 8
 8
 8
 8
 8
 8
 8
 8
 8
 8
 8
 8
 7
 7
 8
 7
 8
 8
 8
 7
 7
 8
 8
 8
 8
 8
 8
 7
 6
 6
 6
 6
 6
 6
 6
 6
 6
 6
 6
 6
 6
 6
 6
 8
 8
 8
 8
 8
 7
 7
 7
 8
 8
 8
 8
 8
 8
 8
 8
 8
 8
 8
 8
 8
 8
 8
 7
 6
 6
 6
 6
 6
 6
 6
 6
 4
 4
 4
 6
 4
 7
 7
 8
 8
 8
 8
 7
 6
 7
 7
 7
 7
 6
 8
 6
 6
 6
 8
 8
 8
 8
 8
 8
 6
 6
 6
 6
 6
 6
 6
 6
 6
 6
 6
 6
 6
 6
 6
 6
 6
 6
 6
 6
 8
 8
 8
 8
 8
 8
 8
 8
 8
 8
 8
 8
 8
 8
 8
 8
 8
 8
 8
 8
 7
 7
 8
 7
 8
 8
 8
 7
 7
 8
 8
 8
 8
 8
 8
 7
 6
 6
 6
 6
 6
 6
 6
 6
 6
 6
 6
 6
 6
 6
 6
 8
 8
 8
 8
 8
 7
 7
 7
 8
 8
 8
 8
 8
 8
 8
 8
 8
 8
 8
 8
 8
 8
 8
 7
 6
 6
 6
 6
 6
 6
 6
 6
 6
 4
 6
 6
 4
 7
 7
 8
 8
 8
 8
 7
 6
 7
 7
 7
 7
 7
 6
 6
 6
 6
 8
 8
 8
 8
 8
 8
 6
 6
 6
 6
 6
 6
 6
 6
 6
 6
 6
 6
 6
 6
 6
 6
 6
 6
 6
 6
 8
 8
 8
 8
 8
 8
 8
 8
 8
 8
 8
 8
 8
 8
 8
 8
 8
 8
 8
 7
 7
 7
 8
 7
 8
 8
 8
 7
 7
 8
 8
 8
 8
 8
 8
 7
 6
 6
 6
 6
 6
 6
 6
 6
 6
 6
 6
 6
 6
 6
 6
 6
 6
 8
 8
 8
 7
 7
 7
 8
 8
 8
 8
 8
 8
 8
 8
 8
 8
 8
 8
 8
 8
 8
 7
 7
 6
 6
 6
 6
 6
 6
 6
 6
 6
 6
 6
 4
 7
 7
 8
 8
 8
 8
 7
 6
 7
 7
 7
 7
 7
 6
 6
 6
 6
 8
 8
 8
 8
 8
 8
 6
 6
 6
 6
 6
 6
 6
 6
 6
 6
 6
 6
 6
 6
 6
 6
 6
 6
 6
 6
 8
 8
 8
 8
 8
 8
 8
 8
 8
 8
 8
 8
 8
 8
 8
 8
 8
 8
 8
 7
 7
 7
 8
 7
 8
 8
 8
 7
 7
 8
 8
 8
 8
 8
 8
 7
 6
 6
 6
 6
 6
 6
 6
 6
 6
 6
 6
 6
 6
 6
 6
 6
 6
 8
 8
 8
 7
 7
 7
 8
 8
 8
 8
 8
 8
 8
 8
 8
 8
 8
 8
 8
 8
 8
 7
 7
 6
 6
 6
 6
 6
 6
 6
 6
 6
 6
 6
 4
 7
 7
 8
 8
 8
 8
 7
 7
 7
 7
 7
 7
 6
 6
 6
 6
 6
 6
 8
 8
 8
 8
 6
 6
 6
 6
 6
 6
 6
 6
 6
 6
 6
 6
 6
 6
 6
 6
 6
 6
 6
 6
 6
 8
 8
 8
 8
 8
 8
 8
 8
 8
 8
 8
 8
 8
 8
 8
 8
 8
 8
 8
 7
 7
 7
 8
 7
 8
 8
 8
 7
 6
 8
 8
 8
 8
 8
 8
 7
 6
 6
 6
 6
 6
 6
 6
 6
 6
 6
 6
 6
 6
 6
 6
 6
 6
 8
 8
 8
 8
 8
 8
 8
 8
 8
 8
 8
 8
 8
 8
 8
 8
 8
 8
 8
 8
 8
 7
 7
 8
 6
 6
 6
 6
 6
 6
 6
 4
 4
 6
 4
 7
 7
 8
 8
 8
 4
 4
 4
 7
 7
 7
 7
 6
 6
 6
 6
 6
 6
 8
 8
 8
 8
 6
 6
 6
 6
 6
 6
 6
 6
 6
 6
 6
 6
 6
 6
 6
 6
 6
 6
 6
 6
 6
 8
 8
 8
 8
 8
 8
 8
 8
 8
 8
 8
 8
 8
 8
 8
 8
 8
 8
 8
 7
 7
 8
 8
 7
 8
 8
 8
 7
 6
 8
 8
 8
 8
 8
 8
 7
 6
 6
 6
 6
 6
 6
 6
 6
 6
 6
 6
 6
 6
 6
 6
 8
 8
 8
 8
 8
 8
 8
 8
 8
 8
 8
 8
 8
 8
 8
 8
 8
 8
 8
 8
 8
 8
 8
 7
 7
 8
 6
 6
 6
 6
 6
 6
 6
 6
 4
 6
 4
 7
 7
 4
 4
 4
 4
 4
 4
 4
 7
 7
 7
 4
 6
 6
 4
 4
 6
 6
 8
 6
 6
 6
 6
 6
 6
 6
 6
 6
 6
 6
 6
 6
 6
 6
 6
 6
 6
 6
 6
 7
 7
 7
 8
 8
 8
 8
 8
 8
 8
 8
 8
 8
 8
 8
 8
 8
 8
 8
 8
 8
 8
 7
 7
 8
 8
 7
 8
 8
 8
 8
 6
 8
 8
 8
 8
 8
 8
 6
 6
 6
 6
 6
 6
 6
 6
 6
 6
 6
 6
 6
 6
 6
 6
 8
 8
 8
 8
 8
 8
 8
 8
 7
 7
 7
 8
 8
 8
 8
 8
 8
 8
 8
 8
 8
 8
 8
 7
 7
 6
 6
 6
 6
 6
 6
 4
 6
 6
 4
 6
 4
 7
 7
 4
 4
 4
 4
 4
 4
 4
 7
 7
 7
 4
 4
 6
 4
 4
 6
 6
 8
 6
 6
 6
 6
 6
 6
 6
 6
 6
 6
 6
 6
 6
 6
 6
 6
 6
 6
 6
 6
 7
 7
 7
 8
 8
 8
 8
 8
 8
 8
 8
 8
 8
 8
 8
 8
 8
 8
 8
 8
 8
 8
 7
 7
 8
 8
 7
 8
 8
 8
 8
 6
 8
 8
 8
 8
 8
 8
 6
 6
 6
 6
 6
 6
 6
 6
 6
 6
 6
 6
 6
 6
 6
 6
 8
 8
 8
 8
 8
 8
 8
 8
 7
 7
 7
 8
 8
 8
 8
 8
 8
 8
 8
 8
 8
 8
 8
 7
 7
 6
 6
 6
 6
 6
 6
 4
 4
 4
 6
 6
 4
 7
 7
 4
 4
 4
 4
 4
 4
 4
 4
 4
 4
 4
 4
 6
 4
 4
 4
 6
 8
 6
 6
 6
 6
 6
 6
 6
 6
 6
 6
 6
 6
 6
 6
 6
 6
 6
 6
 6
 6
 6
 6
 6
 8
 8
 8
 8
 8
 8
 8
 8
 8
 8
 8
 8
 8
 8
 8
 8
 8
 8
 8
 7
 7
 8
 8
 7
 8
 8
 8
 8
 6
 8
 8
 8
 8
 8
 8
 7
 6
 6
 6
 6
 6
 6
 6
 6
 6
 6
 6
 6
 6
 6
 6
 8
 8
 8
 8
 8
 8
 8
 8
 7
 7
 7
 8
 8
 8
 8
 8
 8
 8
 8
 8
 8
 8
 8
 7
 7
 6
 6
 6
 6
 6
 6
 4
 4
 4
 6
 6
 8
 7
 7
 4
 4
 4
 4
 4
 4
 4
 4
 4
 4
 4
 4
 4
 4
 4
 4
 6
 8
 6
 6
 6
 6
 6
 6
 6
 6
 6
 6
 6
 6
 6
 6
 6
 6
 6
 6
 6
 6
 7
 7
 7
 8
 8
 8
 8
 8
 8
 8
 8
 8
 8
 8
 8
 8
 7
 8
 8
 8
 8
 8
 7
 7
 8
 8
 7
 8
 8
 8
 8
 7
 8
 8
 8
 8
 8
 8
 8
 6
 6
 6
 6
 6
 6
 6
 6
 6
 6
 6
 6
 6
 6
 8
 8
 8
 8
 8
 8
 8
 8
 8
 7
 7
 7
 8
 8
 8
 8
 8
 8
 8
 8
 8
 8
 8
 8
 7
 7
 6
 6
 6
 6
 6
 6
 4
 6
 6
 6
 6
 8
 7
 7
 4
 4
 4
 4
 4
 4
 4
 4
 4
 4
 4
 4
 4
 4
 4
 4
 4
 8
 6
 6
 6
 6
 6
 6
 6
 6
 6
 6
 7
 7
 7
 7
 7
 7
 7
 7
 7
 7
 7
 7
 7
 8
 8
 8
 8
 8
 8
 8
 8
 8
 8
 8
 8
 8
 7
 8
 8
 8
 8
 8
 7
 7
 8
 8
 7
 8
 8
 8
 8
 7
 8
 8
 8
 8
 8
 8
 8
 6
 6
 6
 6
 6
 6
 6
 6
 6
 6
 6
 6
 8
 8
 8
 8
 8
 8
 8
 8
 8
 8
 8
 7
 7
 7
 8
 8
 8
 8
 8
 8
 8
 8
 8
 8
 8
 7
 7
 7
 6
 6
 6
 6
 6
 6
 4
 6
 4
 6
 4
 8
 7
 6
 4
 4
 4
 4
 4
 4
 4
 4
 4
 4
 4
 4
 4
 4
 4
 4
 4
 8
 6
 6
 8
 8
 6
 6
 6
 6
 6
 6
 7
 7
 7
 7
 7
 7
 7
 7
 7
 7
 8
 8
 8
 8
 8
 8
 8
 8
 8
 8
 8
 8
 8
 8
 8
 8
 7
 8
 8
 8
 8
 8
 7
 7
 8
 8
 7
 8
 8
 8
 8
 7
 8
 8
 8
 8
 8
 8
 8
 6
 6
 6
 6
 6
 6
 6
 6
 6
 6
 6
 6
 8
 8
 8
 8
 8
 8
 8
 8
 8
 8
 8
 7
 7
 7
 8
 8
 8
 8
 8
 8
 8
 8
 8
 8
 8
 7
 7
 7
 6
 6
 6
 6
 6
 6
 4
 6
 4
 6
 4
 8
 7
 6
 4
 4
 4
 4
 4
 4
 4
 4
 4
 4
 4
 4
 4
 4
 4
 4
 4
 4
 6
 6
 6
 6
 8
 8
 8
 6
 6
 6
 8
 8
 8
 8
 8
 8
 8
 8
 8
 8
 8
 8
 8
 8
 8
 8
 8
 8
 8
 8
 8
 8
 8
 8
 8
 8
 7
 8
 8
 8
 8
 8
 7
 7
 8
 8
 7
 8
 8
 8
 8
 8
 8
 8
 8
 8
 8
 8
 8
 7
 6
 6
 6
 6
 6
 6
 6
 6
 6
 6
 6
 8
 8
 8
 8
 8
 8
 8
 8
 8
 8
 8
 7
 7
 7
 8
 8
 8
 8
 8
 8
 8
 8
 8
 8
 8
 7
 7
 7
 4
 4
 4
 4
 4
 4
 4
 4
 4
 4
 4
 8
 7
 6
 4
 4
 4
 4
 4
 4
 4
 4
 4
 4
 4
 4
 4
 4
 4
 4
 4
 4
 6
 6
 4
 6
 8
 8
 8
 7
 8
 8
 8
 8
 8
 8
 8
 8
 8
 8
 8
 8
 8
 8
 8
 8
 8
 8
 8
 8
 8
 8
 8
 8
 8
 8
 8
 8
 7
 7
 8
 8
 8
 8
 7
 7
 8
 8
 8
 8
 8
 8
 8
 8
 8
 8
 8
 8
 8
 8
 8
 7
 6
 6
 6
 6
 6
 6
 6
 6
 6
 7
 6
 8
 8
 8
 8
 8
 8
 8
 8
 8
 8
 8
 7
 7
 7
 8
 8
 8
 8
 8
 8
 8
 8
 8
 8
 8
 7
 7
 4
 4
 4
 4
 4
 4
 4
 4
 4
 4
 4
 4
 8
 7
 5
 4
 4
 4
 4
 4
 4
 4
 4
 4
 4
 4
 4
 4
 4
 4
 4
 4
 4
 4
 4
 4
 4
 8
 8
 8
 7
 8
 8
 8
 8
 8
 8
 8
 8
 8
 8
 8
 8
 8
 8
 8
 8
 8
 8
 8
 8
 8
 8
 8
 8
 8
 8
 8
 8
 6
 7
 8
 8
 8
 6
 6
 7
 8
 8
 8
 8
 8
 8
 8
 8
 8
 8
 8
 8
 8
 8
 8
 7
 6
 6
 6
 6
 6
 6
 6
 6
 6
 7
 8
 8
 8
 8
 8
 8
 8
 8
 8
 8
 8
 8
 8
 8
 8
 7
 7
 7
 8
 8
 8
 8
 8
 8
 8
 8
 7
 7
 4
 4
 4
 4
 4
 4
 4
 4
 4
 4
 4
 4
 5
 7
 5
 4
 4
 4
 4
 4
 4
 4
 4
 4
 4
 4
 4
 4
 4
 4
 4
 4
 4
 4
 4
 4
 4
 8
 8
 8
 7
 8
 8
 8
 8
 8
 8
 8
 8
 8
 8
 8
 8
 8
 8
 8
 8
 8
 8
 8
 8
 8
 8
 8
 8
 8
 8
 8
 8
 6
 7
 8
 8
 8
 6
 6
 7
 8
 8
 8
 8
 8
 8
 8
 8
 8
 8
 8
 8
 8
 8
 8
 7
 6
 6
 6
 6
 6
 6
 6
 6
 6
 7
 8
 8
 8
 8
 8
 8
 8
 8
 8
 8
 8
 8
 8
 8
 8
 7
 7
 7
 8
 8
 8
 8
 8
 8
 8
 8
 7
 7
 4
 4
 4
 4
 4
 4
 4
 4
 4
 4
 4
 4
 5
 7
 5
 4
 4
 4
 4
 4
 4
 4
 4
 4
 4
 4
 4
 4
 4
 4
 4
 4
 4
 4
 4
 4
 4
 8
 8
 8
 7
 8
 8
 8
 8
 8
 8
 8
 8
 8
 8
 8
 8
 8
 8
 8
 8
 8
 8
 8
 8
 8
 8
 8
 8
 8
 8
 8
 8
 6
 7
 8
 8
 6
 6
 6
 7
 8
 8
 8
 8
 8
 8
 8
 8
 8
 8
 8
 8
 8
 8
 8
 7
 7
 6
 6
 6
 6
 6
 6
 6
 6
 7
 8
 8
 8
 8
 8
 8
 8
 8
 8
 8
 8
 8
 7
 7
 7
 8
 8
 8
 8
 8
 8
 8
 8
 8
 8
 8
 7
 7
 6
 6
 4
 4
 4
 4
 4
 4
 4
 4
 4
 5
 8
 7
 5
 7
 4
 4
 4
 4
 4
 4
 4
 4
 4
 4
 4
 4
 4
 4
 4
 4
 4
 4
 4
 4
 4
 4
 8
 8
 7
 8
 8
 8
 8
 8
 8
 8
 8
 8
 8
 8
 8
 8
 8
 8
 8
 8
 8
 8
 8
 8
 8
 8
 8
 8
 8
 8
 8
 6
 7
 8
 8
 6
 6
 6
 7
 8
 8
 8
 8
 8
 8
 8
 8
 8
 8
 6
 8
 8
 8
 8
 7
 7
 4
 4
 4
 6
 6
 6
 6
 6
 7
 8
 8
 8
 8
 8
 8
 8
 8
 8
 7
 7
 7
 7
 7
 7
 8
 8
 8
 8
 8
 8
 8
 8
 8
 8
 8
 7
 7
 6
 4
 6
 6
 6
 6
 4
 4
 4
 4
 4
 5
 5
 5
 5
 7
 4
 4
 4
 4
 4
 4
 4
 4
 4
 4
 4
 4
 4
 4
 4
 4
 4
 4
 4
 4
 4
 4
 8
 8
 7
 8
 8
 8
 8
 8
 8
 8
 8
 8
 8
 8
 8
 8
 8
 8
 8
 8
 8
 8
 8
 8
 8
 8
 8
 8
 8
 8
 8
 6
 7
 8
 8
 6
 6
 6
 7
 8
 8
 8
 8
 8
 8
 8
 8
 8
 8
 6
 8
 8
 8
 8
 7
 7
 4
 4
 4
 6
 6
 6
 6
 6
 7
 8
 8
 8
 8
 8
 8
 8
 8
 8
 7
 7
 7
 7
 7
 7
 8
 8
 8
 8
 8
 8
 8
 8
 8
 8
 8
 7
 7
 6
 4
 6
 6
 6
 6
 4
 4
 4
 4
 4
 5
 5
 5
 5
 7
 8
 4
 4
 4
 4
 4
 4
 4
 4
 4
 4
 4
 4
 4
 4
 4
 4
 4
 4
 4
 4
 4
 4
 4
 7
 8
 8
 8
 8
 8
 8
 8
 8
 8
 8
 8
 8
 8
 8
 8
 8
 8
 8
 8
 8
 8
 8
 8
 8
 8
 8
 8
 6
 6
 7
 8
 8
 4
 6
 6
 7
 8
 8
 8
 8
 8
 8
 8
 8
 8
 8
 8
 8
 8
 8
 8
 4
 4
 4
 4
 4
 4
 4
 6
 6
 6
 6
 8
 8
 8
 8
 8
 8
 8
 8
 8
 7
 7
 7
 7
 7
 7
 8
 8
 8
 8
 8
 8
 8
 8
 8
 7
 7
 6
 6
 6
 6
 6
 6
 6
 6
 4
 4
 4
 4
 4
 5
 5
 5
 5
 7
 8
 4
 4
 4
 4
 4
 4
 4
 4
 4
 4
 4
 4
 4
 4
 4
 4
 4
 4
 4
 4
 4
 4
 4
 7
 8
 8
 8
 8
 8
 8
 8
 8
 8
 8
 8
 8
 8
 8
 8
 8
 8
 8
 8
 8
 8
 8
 8
 8
 8
 8
 8
 6
 6
 8
 8
 8
 4
 6
 6
 7
 8
 8
 8
 8
 8
 8
 8
 8
 8
 8
 8
 8
 8
 8
 8
 4
 4
 4
 4
 4
 4
 4
 6
 6
 6
 6
 8
 8
 8
 8
 8
 8
 8
 8
 8
 7
 7
 7
 7
 7
 7
 8
 8
 8
 8
 8
 8
 8
 8
 8
 7
 7
 6
 6
 6
 6
 6
 6
 6
 6
 4
 4
 4
 4
 4
 4
 5
 5
 5
 7
 8
 4
 4
 4
 4
 4
 4
 4
 4
 4
 4
 4
 4
 4
 4
 4
 4
 4
 4
 4
 4
 4
 4
 4
 7
 8
 8
 8
 8
 8
 8
 8
 8
 8
 8
 8
 8
 8
 8
 8
 8
 8
 8
 8
 8
 8
 8
 8
 8
 8
 8
 8
 6
 6
 8
 8
 8
 4
 6
 6
 7
 8
 8
 8
 8
 8
 8
 8
 8
 8
 8
 8
 8
 8
 8
 8
 4
 4
 4
 4
 4
 4
 4
 6
 6
 6
 6
 8
 8
 8
 8
 8
 8
 8
 8
 8
 7
 7
 7
 7
 7
 7
 8
 8
 8
 8
 8
 8
 8
 8
 8
 7
 7
 6
 6
 6
 6
 6
 6
 6
 6
 4
 4
 4
 4
 4
 4
 5
 5
 5
 7
 8
 4
 4
 4
 4
 4
 4
 4
 4
 4
 4
 4
 4
 4
 4
 4
 4
 4
 4
 4
 4
 4
 4
 4
 4
 8
 8
 8
 8
 8
 8
 8
 8
 8
 8
 8
 8
 8
 8
 8
 8
 8
 8
 8
 8
 8
 8
 8
 8
 8
 8
 8
 8
 8
 8
 8
 8
 4
 4
 4
 7
 6
 8
 8
 8
 8
 8
 8
 8
 8
 8
 8
 8
 8
 8
 8
 4
 4
 4
 4
 4
 4
 4
 4
 4
 4
 7
 8
 8
 8
 8
 8
 8
 8
 8
 8
 6
 6
 6
 7
 7
 7
 8
 8
 8
 8
 8
 8
 8
 8
 8
 6
 6
 6
 6
 6
 6
 6
 6
 6
 6
 6
 6
 6
 4
 4
 4
 6
 5
 7
 7
 8
 4
 4
 4
 4
 4
 4
 4
 4
 4
 4
 4
 4
 4
 4
 4
 4
 4
 4
 4
 4
 4
 4
 4
 4
 8
 8
 8
 8
 8
 8
 8
 8
 8
 8
 8
 8
 8
 8
 8
 8
 8
 8
 8
 8
 8
 8
 8
 8
 8
 8
 8
 8
 8
 8
 8
 5
 4
 4
 4
 7
 6
 8
 8
 8
 8
 8
 8
 8
 8
 8
 8
 8
 8
 8
 8
 4
 4
 4
 4
 4
 4
 4
 4
 4
 4
 7
 8
 8
 8
 8
 8
 8
 8
 8
 8
 6
 6
 6
 7
 7
 7
 8
 8
 8
 8
 8
 8
 8
 8
 8
 6
 6
 6
 6
 6
 6
 6
 6
 6
 6
 6
 6
 6
 4
 4
 4
 6
 5
 7
 7
 8
 4
 4
 4
 4
 4
 4
 4
 4
 4
 4
 4
 4
 4
 4
 4
 4
 4
 4
 4
 4
 4
 4
 4
 4
 8
 8
 8
 8
 8
 8
 8
 8
 8
 8
 8
 8
 8
 8
 8
 8
 8
 8
 8
 8
 8
 8
 8
 8
 8
 8
 8
 8
 8
 8
 8
 5
 4
 4
 4
 7
 6
 8
 8
 8
 8
 8
 8
 8
 8
 8
 8
 8
 8
 8
 8
 4
 4
 4
 4
 4
 4
 4
 4
 4
 4
 7
 8
 8
 8
 8
 8
 8
 8
 8
 8
 6
 6
 6
 7
 7
 7
 8
 8
 8
 8
 8
 8
 8
 8
 8
 6
 6
 6
 6
 6
 6
 6
 6
 6
 6
 6
 6
 6
 4
 4
 4
 8
 5
 7
 7
 8
 4
 4
 4
 4
 4
 4
 4
 4
 4
 4
 4
 4
 4
 4
 4
 4
 4
 4
 4
 4
 4
 4
 4
 4
 8
 8
 8
 8
 8
 8
 8
 8
 8
 8
 8
 8
 8
 8
 8
 8
 8
 8
 8
 8
 8
 8
 8
 8
 8
 8
 8
 8
 8
 4
 8
 6
 4
 4
 4
 6
 6
 8
 8
 8
 8
 8
 8
 8
 8
 6
 8
 8
 8
 8
 8
 4
 4
 4
 4
 4
 4
 4
 4
 4
 4
 4
 8
 8
 8
 8
 8
 8
 8
 8
 8
 6
 6
 6
 6
 6
 6
 6
 6
 6
 8
 8
 8
 6
 6
 8
 6
 6
 6
 6
 6
 6
 6
 6
 6
 6
 6
 6
 6
 6
 4
 7
 8
 8
 7
 7
 8
 4
 4
 4
 4
 4
 4
 4
 4
 4
 4
 4
 4
 4
 4
 4
 4
 4
 4
 4
 4
 4
 4
 4
 4
 8
 8
 8
 8
 8
 8
 8
 8
 8
 8
 8
 8
 8
 8
 8
 8
 8
 8
 8
 8
 8
 8
 8
 8
 8
 8
 8
 8
 4
 4
 4
 6
 6
 4
 4
 6
 6
 8
 8
 8
 8
 8
 8
 8
 8
 6
 8
 8
 8
 8
 8
 4
 4
 4
 4
 4
 4
 4
 4
 4
 4
 4
 8
 8
 8
 8
 8
 8
 8
 8
 8
 6
 6
 6
 6
 6
 6
 6
 6
 6
 8
 8
 8
 6
 6
 8
 6
 6
 6
 6
 6
 6
 6
 6
 6
 6
 6
 6
 6
 6
 4
 7
 8
 8
 7
 7
 8
 4
 4
 4
 4
 4
 4
 4
 4
 4
 4
 4
 4
 4
 4
 4
 4
 4
 4
 4
 4
 4
 4
 4
 4
 8
 8
 8
 8
 8
 8
 8
 8
 8
 8
 8
 8
 8
 8
 8
 8
 8
 8
 8
 8
 8
 8
 8
 8
 8
 8
 8
 6
 4
 4
 4
 6
 6
 6
 4
 4
 4
 8
 8
 8
 8
 8
 8
 8
 8
 8
 8
 8
 8
 8
 8
 4
 4
 4
 4
 4
 4
 4
 4
 4
 4
 4
 4
 8
 8
 8
 8
 8
 6
 6
 6
 6
 6
 6
 6
 6
 6
 6
 6
 6
 6
 6
 6
 6
 6
 6
 6
 6
 6
 6
 6
 6
 6
 6
 6
 6
 6
 6
 6
 6
 4
 4
 8
 8
 7
 7
 8
 4
 4
 4
 4
 4
 4
 4
 4
 4
 4
 4
 4
 4
 4
 4
 4
 4
 4
 4
 4
 4
 4
 4
 4
 8
 8
 8
 8
 8
 8
 8
 8
 8
 8
 8
 8
 8
 8
 8
 8
 8
 8
 8
 8
 8
 8
 8
 8
 8
 8
 8
 4
 4
 4
 4
 4
 6
 6
 4
 4
 4
 8
 8
 8
 8
 8
 8
 8
 8
 8
 8
 8
 8
 8
 8
 4
 4
 4
 4
 4
 4
 4
 4
 4
 4
 4
 4
 8
 8
 8
 8
 8
 6
 6
 6
 6
 6
 6
 6
 6
 6
 6
 6
 6
 6
 6
 6
 6
 6
 6
 6
 6
 6
 6
 6
 6
 6
 6
 6
 6
 6
 6
 6
 6
 4
 4
 8
 8
 8
 7
 8
 4
 4
 4
 4
 4
 4
 4
 4
 4
 4
 4
 4
 4
 4
 4
 4
 4
 4
 4
 4
 4
 4
 4
 4
 4
 4
 8
 8
 8
 8
 8
 8
 8
 8
 8
 8
 8
 8
 8
 8
 8
 8
 8
 8
 8
 8
 8
 8
 8
 8
 8
 4
 4
 4
 4
 4
 4
 6
 6
 4
 4
 8
 8
 8
 8
 8
 8
 8
 8
 6
 8
 8
 8
 8
 8
 4
 4
 4
 4
 4
 4
 4
 4
 4
 4
 4
 4
 8
 8
 8
 8
 8
 6
 6
 6
 6
 6
 6
 6
 6
 6
 6
 6
 6
 6
 6
 6
 6
 6
 6
 6
 6
 6
 6
 6
 6
 6
 6
 6
 6
 6
 6
 6
 6
 4
 8
 8
 8
 8
 7
 8
 4
 4
 4
 4
 4
 4
 4
 4
 4
 4
 4
 4
 4
 4
 4
 4
 4
 4
 4
 4
 4
 4
 4
 4
 4
 4
 8
 8
 8
 8
 8
 8
 8
 8
 8
 8
 8
 8
 8
 8
 8
 8
 8
 8
 8
 8
 8
 8
 8
 8
 8
 4
 4
 4
 4
 4
 4
 6
 6
 4
 4
 8
 8
 8
 8
 8
 8
 8
 8
 6
 8
 8
 8
 8
 8
 4
 4
 4
 4
 4
 4
 4
 4
 4
 4
 4
 4
 8
 8
 8
 8
 8
 6
 6
 6
 6
 6
 6
 6
 6
 6
 6
 6
 6
 6
 6
 6
 6
 6
 6
 6
 6
 6
 6
 6
 6
 6
 6
 6
 6
 6
 6
 6
 6
 4
 8
 8
 8
 8
 7
 8
 4
 4
 4
 4
 4
 4
 4
 4
 4
 4
 4
 4
 4
 4
 4
 4
 4
 4
 4
 4
 4
 4
 4
 4
 4
 4
 8
 8
 8
 8
 8
 8
 8
 8
 8
 8
 8
 8
 8
 8
 8
 8
 8
 8
 8
 8
 8
 8
 8
 8
 8
 4
 4
 4
 4
 4
 4
 4
 7
 6
 4
 8
 8
 8
 8
 8
 8
 8
 8
 8
 8
 8
 8
 8
 8
 8
 4
 4
 4
 4
 4
 4
 4
 4
 4
 4
 4
 8
 8
 8
 8
 8
 6
 6
 6
 6
 6
 6
 6
 6
 6
 6
 6
 6
 6
 6
 6
 6
 6
 6
 6
 6
 6
 6
 6
 6
 6
 6
 6
 6
 6
 6
 6
 6
 7
 8
 8
 8
 8
 7
 7
 4
 4
 4
 4
 4
 4
 4
 4
 4
 4
 4
 4
 4
 4
 4
 4
 4
 4
 4
 4
 4
 4
 4
 4
 4
 4
 8
 8
 8
 8
 8
 8
 8
 8
 8
 8
 8
 8
 8
 8
 8
 8
 8
 8
 8
 8
 8
 8
 8
 8
 8
 4
 4
 4
 4
 4
 4
 4
 7
 6
 4
 8
 8
 8
 8
 8
 8
 8
 8
 8
 8
 8
 8
 8
 8
 8
 8
 4
 4
 4
 4
 4
 4
 4
 4
 4
 4
 4
 4
 8
 8
 8
 6
 6
 6
 6
 6
 6
 6
 6
 6
 6
 6
 6
 6
 6
 6
 6
 6
 6
 6
 6
 6
 6
 6
 6
 6
 6
 6
 6
 6
 6
 6
 6
 7
 8
 8
 8
 8
 7
 7
 8
 4
 4
 4
 4
 4
 4
 4
 4
 4
 4
 4
 4
 4
 4
 4
 4
 4
 4
 4
 4
 4
 4
 4
 4
 4
 8
 8
 8
 8
 8
 8
 8
 8
 8
 8
 8
 8
 8
 8
 8
 8
 8
 8
 8
 8
 8
 8
 8
 8
 8
 4
 4
 4
 4
 4
 4
 4
 7
 6
 6
 8
 8
 8
 8
 8
 8
 8
 8
 8
 8
 8
 8
 8
 8
 8
 8
 4
 4
 4
 4
 4
 4
 4
 4
 4
 4
 4
 4
 8
 8
 8
 6
 6
 6
 6
 6
 6
 6
 6
 6
 6
 6
 6
 6
 6
 6
 6
 6
 6
 6
 6
 6
 6
 6
 6
 6
 6
 6
 6
 6
 6
 6
 6
 7
 8
 8
 8
 8
 7
 7
 8
 4
 4
 4
 4
 4
 4
 4
 4
 4
 4
 4
 4
 4
 4
 4
 4
 4
 4
 4
 4
 4
 4
 4
 4
 4
 8
 8
 8
 8
 8
 8
 8
 8
 8
 8
 8
 8
 8
 8
 8
 8
 8
 8
 8
 8
 5
 8
 8
 8
 8
 4
 4
 4
 4
 4
 8
 4
 4
 6
 6
 8
 8
 8
 8
 8
 8
 8
 8
 8
 8
 8
 8
 8
 8
 8
 8
 7
 7
 4
 4
 4
 4
 4
 4
 4
 4
 4
 4
 8
 4
 4
 4
 4
 4
 4
 4
 4
 6
 6
 6
 6
 6
 6
 6
 6
 6
 6
 6
 6
 6
 6
 6
 6
 6
 6
 6
 6
 6
 6
 6
 4
 6
 6
 7
 8
 8
 8
 8
 7
 7
 8
 4
 4
 4
 4
 4
 4
 4
 4
 4
 4
 4
 4
 4
 4
 4
 4
 4
 4
 4
 4
 4
 4
 4
 4
 4
 8
 8
 8
 8
 8
 8
 8
 8
 8
 5
 5
 5
 8
 8
 8
 8
 8
 8
 8
 8
 8
 8
 8
 8
 4
 4
 4
 4
 4
 4
 8
 8
 4
 6
 6
 8
 8
 8
 8
 8
 8
 8
 8
 8
 8
 8
 8
 8
 8
 8
 8
 7
 7
 4
 4
 4
 4
 4
 4
 4
 4
 4
 4
 4
 4
 4
 4
 4
 4
 4
 4
 4
 4
 4
 4
 4
 4
 4
 6
 6
 6
 6
 6
 6
 6
 6
 6
 6
 6
 6
 6
 6
 6
 6
 6
 4
 6
 8
 7
 8
 8
 8
 8
 7
 7
 4
 4
 4
 4
 4
 4
 4
 4
 4
 4
 4
 4
 4
 4
 4
 4
 4
 4
 4
 4
 4
 4
 4
 4
 4
 4
 8
 8
 5
 5
 5
 5
 5
 5
 5
 5
 5
 5
 8
 8
 8
 8
 8
 8
 8
 8
 8
 8
 8
 8
 8
 4
 4
 4
 4
 7
 8
 8
 8
 4
 6
 8
 8
 7
 7
 8
 8
 8
 8
 8
 8
 8
 8
 8
 8
 8
 8
 4
 7
 4
 4
 4
 4
 4
 4
 4
 4
 4
 4
 4
 4
 4
 4
 4
 4
 4
 4
 4
 4
 4
 4
 4
 4
 4
 4
 4
 4
 4
 4
 6
 6
 6
 6
 6
 6
 6
 6
 6
 6
 6
 8
 4
 6
 4
 7
 8
 8
 8
 8
 7
 7
 4
 4
 4
 4
 4
 4
 4
 4
 4
 4
 4
 4
 4
 4
 4
 4
 4
 4
 4
 4
 4
 4
 4
 4
 4
 4
 5
 5
 5
 5
 5
 5
 5
 5
 8
 8
 5
 5
 8
 8
 8
 8
 8
 8
 8
 8
 8
 8
 8
 8
 8
 6
 6
 6
 6
 6
 8
 8
 8
 4
 6
 8
 8
 7
 7
 6
 8
 8
 8
 8
 8
 8
 8
 8
 8
 8
 8
 7
 4
 4
 4
 4
 4
 4
 8
 4
 4
 4
 4
 4
 4
 4
 4
 4
 4
 4
 4
 4
 4
 4
 4
 4
 4
 4
 4
 4
 4
 4
 4
 4
 6
 6
 6
 6
 8
 6
 6
 6
 6
 6
 8
 4
 7
 8
 6
 4
 8
 8
 8
 7
 7
 4
 4
 4
 4
 4
 4
 4
 4
 4
 4
 4
 4
 4
 5
 4
 4
 4
 4
 4
 4
 4
 4
 4
 5
 5
 5
 8
 8
 8
 8
 8
 8
 8
 8
 8
 8
 8
 8
 8
 8
 8
 6
 8
 8
 8
 8
 8
 8
 8
 8
 6
 6
 6
 6
 6
 8
 8
 8
 8
 7
 4
 8
 8
 8
 8
 7
 6
 8
 8
 8
 8
 8
 8
 8
 8
 8
 8
 7
 4
 4
 6
 6
 6
 8
 8
 6
 6
 4
 4
 4
 4
 4
 4
 4
 4
 4
 4
 4
 4
 4
 4
 6
 6
 6
 6
 6
 6
 6
 6
 6
 7
 7
 6
 8
 8
 8
 7
 6
 6
 6
 8
 4
 7
 4
 4
 4
 8
 8
 8
 7
 7
 4
 4
 4
 4
 4
 4
 4
 4
 4
 4
 4
 4
 4
 5
 5
 4
 7
 7
 7
 4
 5
 5
 5
 6
 8
 8
 8
 8
 8
 8
 8
 8
 8
 8
 8
 8
 8
 8
 8
 8
 8
 8
 6
 6
 8
 8
 8
 8
 8
 8
 6
 6
 6
 6
 6
 8
 8
 8
 8
 7
 5
 8
 8
 8
 8
 8
 6
 6
 8
 8
 8
 8
 8
 8
 8
 8
 8
 7
 7
 4
 4
 4
 4
 8
 8
 6
 6
 6
 6
 6
 6
 6
 6
 6
 6
 6
 6
 6
 6
 6
 6
 6
 6
 6
 6
 6
 6
 6
 6
 6
 7
 7
 7
 8
 8
 8
 7
 6
 6
 6
 4
 8
 4
 4
 4
 4
 8
 8
 8
 7
 7
 7
 4
 4
 4
 4
 4
 4
 4
 4
 4
 4
 4
 4
 7
 8
 6
 7
 7
 7
 6
 6
 6
 4
 4
 4
 4
 4
 8
 8
 8
 8
 8
 8
 8
 8
 8
 8
 8
 8
 8
 8
 4
 7
 7
 8
 8
 8
 4
 4
 4
 4
 4
 4
 6
 6
 8
 8
 8
 8
 6
 6
 8
 8
 8
 8
 8
 4
 4
 8
 8
 8
 8
 8
 8
 8
 8
 8
 7
 4
 4
 4
 4
 4
 4
 4
 8
 6
 6
 6
 6
 6
 6
 6
 6
 6
 6
 6
 6
 6
 6
 6
 6
 6
 6
 7
 7
 7
 8
 8
 8
 7
 7
 7
 8
 8
 8
 7
 4
 4
 4
 4
 4
 4
 4
 4
 4
 4
 4
 8
 7
 7
 4
 4
 4
 4
 4
 4
 4
 4
 4
 4
 4
 4
 4
 6
 4
 5
 8
 7
 4
 4
 4
 4
 4
 4
 4
 4
 8
 8
 8
 8
 8
 8
 8
 8
 8
 8
 8
 8
 8
 4
 4
 4
 4
 8
 4
 4
 4
 4
 4
 4
 4
 4
 6
 6
 6
 8
 8
 8
 8
 8
 8
 8
 8
 8
 8
 8
 8
 4
 4
 4
 8
 8
 8
 8
 8
 8
 4
 4
 4
 4
 7
 7
 8
 4
 4
 8
 6
 6
 6
 6
 6
 6
 6
 6
 6
 6
 6
 6
 6
 6
 6
 6
 6
 6
 7
 7
 7
 8
 8
 8
 7
 7
 7
 8
 8
 8
 7
 4
 4
 4
 4
 4
 4
 4
 4
 4
 4
 4
 4
 7
 7
 4
 4
 4
 4
 4
 4
 4
 4
 4
 4
 4
 4
 4
 4
 4
 4
 4
 4
 4
 4
 4
 4
 4
 4
 4
 8
 8
 8
 8
 8
 8
 8
 8
 8
 8
 8
 4
 4
 4
 4
 4
 4
 4
 4
 4
 4
 4
 4
 6
 6
 6
 6
 6
 6
 6
 6
 8
 8
 8
 7
 6
 6
 6
 8
 8
 8
 8
 8
 8
 8
 4
 4
 4
 4
 4
 4
 4
 4
 7
 7
 7
 7
 8
 4
 4
 8
 6
 6
 6
 6
 6
 6
 6
 6
 6
 6
 6
 6
 6
 6
 6
 6
 6
 6
 7
 7
 7
 6
 6
 8
 7
 7
 7
 8
 8
 8
 7
 4
 4
 4
 4
 4
 4
 4
 4
 4
 4
 4
 4
 4
 4
 4
 4
 4
 4
 4
 4
 4
 4
 4
 4
 4
 4
 6
 6
 6
 6
 6
 6
 4
 4
 4
 4
 4
 6
 8
 8
 8
 8
 8
 8
 8
 4
 4
 4
 4
 4
 4
 4
 4
 4
 4
 4
 4
 4
 4
 6
 6
 6
 6
 6
 6
 6
 6
 6
 6
 6
 6
 8
 8
 6
 6
 6
 6
 8
 6
 6
 6
 6
 6
 8
 6
 8
 8
 7
 8
 8
 8
 8
 7
 7
 7
 7
 4
 4
 8
 8
 6
 6
 6
 6
 6
 6
 6
 6
 6
 8
 8
 8
 7
 7
 7
 7
 7
 7
 6
 6
 6
 6
 6
 6
 6
 6
 6
 8
 4
 4
 4
 4
 4
 4
 4
 4
 4
 4
 4
 4
 4
 4
 4
 4
 4
 4
 4
 4
 7
 6
 6
 4
 4
 4
 4
 6
 6
 6
 6
 6
 6
 6
 6
 4
 4
 4
 4
 4
 4
 4
 4
 4
 4
 4
 4
 4
 4
 4
 4
 4
 4
 6
 6
 6
 6
 6
 6
 6
 6
 6
 6
 6
 6
 6
 6
 6
 6
 6
 6
 6
 6
 6
 6
 7
 6
 6
 6
 6
 6
 6
 6
 6
 6
 6
 6
 8
 8
 8
 7
 7
 8
 8
 8
 7
 7
 7
 4
 4
 8
 8
 8
 6
 6
 6
 6
 6
 6
 6
 6
 6
 8
 8
 8
 7
 7
 7
 6
 6
 6
 6
 6
 6
 6
 6
 6
 4
 4
 4
 4
 4
 4
 4
 4
 4
 4
 4
 4
 4
 4
 4
 4
 4
 7
 8
 4
 4
 4
 4
 7
 7
 6
 6
 6
 6
 6
 6
 6
 6
 6
 6
 6
 6
 6
 6
 4
 4
 4
 4
 4
 4
 4
 4
 4
 4
 4
 6
 6
 6
 6
 6
 6
 6
 6
 6
 6
 6
 6
 6
 6
 6
 6
 6
 6
 6
 6
 6
 6
 6
 6
 6
 6
 6
 6
 6
 7
 6
 6
 6
 6
 6
 6
 6
 6
 6
 6
 6
 8
 8
 8
 7
 7
 8
 8
 8
 7
 4
 4
 4
 8
 8
 8
 8
 8
 6
 6
 6
 6
 6
 6
 6
 6
 8
 8
 8
 7
 7
 7
 6
 6
 6
 6
 6
 6
 4
 4
 4
 4
 4
 4
 4
 4
 4
 4
 4
 4
 4
 4
 4
 4
 4
 4
 4
 7
 8
 4
 4
 4
 4
 7
 7
 6
 6
 6
 6
 6
 6
 6
 6
 6
 6
 6
 6
 6
 6
 4
 4
 4
 4
 4
 4
 4
 4
 4
 4
 6
 6
 6
 6
 6
 6
 6
 6
 6
 6