                                  MODFLOW-2000
      U.S. GEOLOGICAL SURVEY MODULAR FINITE-DIFFERENCE GROUND-WATER FLOW MODEL
                           VERSION 1.19.01 03/25/2010


 This model run produced both GLOBAL and LIST files.  This is the GLOBAL file.

 GLOBAL LISTING FILE: "B.glo"
                         UNIT    2

 OPENING "B.out"
 FILE TYPE:LIST   UNIT    3   STATUS:REPLACE
 FORMAT:FORMATTED              ACCESS:SEQUENTIAL          

 OPENING "B.hed"
 FILE TYPE:DATA(BINARY)   UNIT    4   STATUS:UNKNOWN
 FORMAT:BINARY                 ACCESS:SEQUENTIAL          

 OPENING "B.ccf"
 FILE TYPE:DATA(BINARY)   UNIT   40   STATUS:UNKNOWN
 FORMAT:BINARY                 ACCESS:SEQUENTIAL          

 OPENING "B.lmt"
 FILE TYPE:LMT6   UNIT    7   STATUS:OLD    
 FORMAT:FORMATTED              ACCESS:SEQUENTIAL          
#                                                                                                                                                                                                       
# Obs-Sen-Pes Process Input Files                                                                                                                                                                       

 OPENING "B.obs"
 FILE TYPE:OBS   UNIT    8   STATUS:OLD    
 FORMAT:FORMATTED              ACCESS:SEQUENTIAL          

 OPENING "B.hob"
 FILE TYPE:HOB   UNIT    9   STATUS:OLD    
 FORMAT:FORMATTED              ACCESS:SEQUENTIAL          

 OPENING "B.gbob"
 FILE TYPE:GBOB   UNIT   16   STATUS:OLD    
 FORMAT:FORMATTED              ACCESS:SEQUENTIAL          

 OPENING "B.drob"
 FILE TYPE:DROB   UNIT   17   STATUS:OLD    
 FORMAT:FORMATTED              ACCESS:SEQUENTIAL          

 OPENING "B.chob"
 FILE TYPE:CHOB   UNIT   18   STATUS:OLD    
 FORMAT:FORMATTED              ACCESS:SEQUENTIAL          

 FILE TYPE:ASP: FILE = B.asp
#                                                                                                                                                                                                       
# Global Input Files                                                                                                                                                                                    

 OPENING "B.dis"
 FILE TYPE:DIS   UNIT   10   STATUS:OLD    
 FORMAT:FORMATTED              ACCESS:SEQUENTIAL          
#                                                                                                                                                                                                       
# Flow Process Input Files                                                                                                                                                                              

 OPENING "B.ba6"
 FILE TYPE:BAS6   UNIT   11   STATUS:OLD    
 FORMAT:FORMATTED              ACCESS:SEQUENTIAL          

 OPENING "B.lpf"
 FILE TYPE:LPF   UNIT   12   STATUS:OLD    
 FORMAT:FORMATTED              ACCESS:SEQUENTIAL          

 OPENING "B.oc"
 FILE TYPE:OC   UNIT   13   STATUS:OLD    
 FORMAT:FORMATTED              ACCESS:SEQUENTIAL          

 OPENING "B.rch"
 FILE TYPE:RCH   UNIT   19   STATUS:OLD    
 FORMAT:FORMATTED              ACCESS:SEQUENTIAL          

 OPENING "B.drn"
 FILE TYPE:DRN   UNIT   20   STATUS:OLD    
 FORMAT:FORMATTED              ACCESS:SEQUENTIAL          

 OPENING "B.ghb"
 FILE TYPE:GHB   UNIT   21   STATUS:OLD    
 FORMAT:FORMATTED              ACCESS:SEQUENTIAL          

 OPENING "B.evt"
 FILE TYPE:EVT   UNIT   22   STATUS:OLD    
 FORMAT:FORMATTED              ACCESS:SEQUENTIAL          

 OPENING "B.chd"
 FILE TYPE:CHD   UNIT   23   STATUS:OLD    
 FORMAT:FORMATTED              ACCESS:SEQUENTIAL          

 OPENING "B.pcg"
 FILE TYPE:PCG   UNIT   14   STATUS:OLD    
 FORMAT:FORMATTED              ACCESS:SEQUENTIAL          

 THE FREE FORMAT OPTION HAS BEEN SELECTED

 DISCRETIZATION INPUT DATA READ FROM UNIT   10
 # MF2K DISCRETIZATION FILE
 #
 #
 # NLAY NROW NCOL NPER TIMEUNITS LENUNITS
    6 LAYERS       247 ROWS       167 COLUMNS
    1 STRESS PERIOD(S) IN SIMULATION
 MODEL TIME UNIT IS DAYS
 MODEL LENGTH UNIT IS METERS
 THE GROUND-WATER TRANSPORT PROCESS IS INACTIVE

 THE OBSERVATION PROCESS IS ACTIVE
 THE SENSITIVITY PROCESS IS INACTIVE
 THE PARAMETER-ESTIMATION PROCESS IS INACTIVE

 MODE: FORWARD WITH OBSERVATIONS

  Confining bed flag for each layer:
   0   0   0   0   0   0

    2227860  ELEMENTS OF GX ARRAY USED OUT OF    2227860
     247494  ELEMENTS OF GZ ARRAY USED OUT OF     247494
     247494  ELEMENTS OF IG ARRAY USED OUT OF     247494

 -------------------------------------------------------------------------------

 VARIABLES READ FROM ASP INPUT FILE:-

 NOSTOP = 1          : DO NOT CEASE EXECUTION IF MODFLOW FAILS TO CONVERGE.
 HYDRYBOT = 0        : ASSIGN HDRY TO HEAD IN DRY CELL.
 MINTHICK =     0.000: DO NOT PREVENT BASAL CELLS DRYING OUT.
 LIMOP = 0           : NO LIMITATIONS ON OBSERVATION OR SENSITIVITY OUTPUT.

 -------------------------------------------------------------------------------




                               DELR
 READING ON UNIT   10 WITH FORMAT: (FREE)              



                               DELC
 READING ON UNIT   10 WITH FORMAT: (FREE)              


 STRESS PERIOD     LENGTH       TIME STEPS     MULTIPLIER FOR DELT    SS FLAG
 ----------------------------------------------------------------------------
        1         1.000000          1                    1.000         SS

 STEADY-STATE SIMULATION




 LPF1 -- LAYER PROPERTY FLOW PACKAGE, VERSION 1, 1/11/2000
         INPUT READ FROM UNIT   12
 CELL-BY-CELL FLOWS WILL BE SAVED ON UNIT   40
 HEAD AT CELLS THAT CONVERT TO DRY=  -888.00    
 No named parameters

   LAYER FLAGS:
 LAYER       LAYTYP        LAYAVG         CHANI        LAYVKA        LAYWET
 ---------------------------------------------------------------------------
    1             1             0    -1.000E+00             1             1
    2             1             0    -1.000E+00             1             1
    3             1             0    -1.000E+00             1             1
    4             1             0    -1.000E+00             1             1
    5             1             0    -1.000E+00             1             1
    6             1             0    -1.000E+00             1             1

   INTERPRETATION OF LAYER FLAGS:
                        INTERBLOCK     HORIZONTAL    DATA IN
         LAYER TYPE   TRANSMISSIVITY   ANISOTROPY   ARRAY VKA   WETTABILITY
 LAYER      (LAYTYP)      (LAYAVG)       (CHANI)      (LAYVKA)      (LAYWET)
 ---------------------------------------------------------------------------
    1   CONVERTIBLE      HARMONIC      VARIABLE    ANISOTROPY      WETTABLE
    2   CONVERTIBLE      HARMONIC      VARIABLE    ANISOTROPY      WETTABLE
    3   CONVERTIBLE      HARMONIC      VARIABLE    ANISOTROPY      WETTABLE
    4   CONVERTIBLE      HARMONIC      VARIABLE    ANISOTROPY      WETTABLE
    5   CONVERTIBLE      HARMONIC      VARIABLE    ANISOTROPY      WETTABLE
    6   CONVERTIBLE      HARMONIC      VARIABLE    ANISOTROPY      WETTABLE

     989976 ELEMENTS IN X ARRAY ARE USED BY LPF
         36 ELEMENTS IN IX ARRAY ARE USED BY LPF

 PCG2 -- CONJUGATE GRADIENT SOLUTION PACKAGE, VERSION 2.4, 12/29/98
 MAXIMUM OF     10 CALLS OF SOLUTION ROUTINE
 MAXIMUM OF     50 INTERNAL ITERATIONS PER CALL TO SOLUTION ROUTINE
 MATRIX PRECONDITIONING TYPE :    2
     495988 ELEMENTS IN X ARRAY ARE USED BY PCG
       3500 ELEMENTS IN IX ARRAY ARE USED BY PCG
     989976 ELEMENTS IN Z ARRAY ARE USED BY PCG

 OBS1BAS6 -- OBSERVATION PROCESS, VERSION 1.0, 4/27/99
 INPUT READ FROM UNIT   8
 OBSERVATION GRAPH-DATA OUTPUT FILES
 WILL BE PRINTED AND NAMED USING THE BASE: B

 HEAD OBSERVATIONS -- INPUT READ FROM UNIT   9
 #           CoverageGUID ObjectType ID X Y Time OBNAME
 #GMSCOMMENT 2e2fb02e-f112-4473-b8b7-ce2631550124 POINT 10, 472251.8, 7603988.3 ts_0 hed1
 #GMSCOMMENT 2e2fb02e-f112-4473-b8b7-ce2631550124 POINT 11, 472058.1, 7604214.4 ts_0 hed2
 #GMSCOMMENT 2e2fb02e-f112-4473-b8b7-ce2631550124 POINT 12, 472103.2, 7604161.4 ts_0 hed3
 #GMSCOMMENT 2e2fb02e-f112-4473-b8b7-ce2631550124 POINT 13, 472359.5, 7603913.0 ts_0 hed4
 #GMSCOMMENT 2e2fb02e-f112-4473-b8b7-ce2631550124 POINT 14, 472486.3, 7603851.4 ts_0 hed5
 #GMSCOMMENT 2e2fb02e-f112-4473-b8b7-ce2631550124 POINT 15, 472114.0, 7604268.0 ts_0 hed6
 #GMSCOMMENT 2e2fb02e-f112-4473-b8b7-ce2631550124 POINT 16, 472262.9, 7604192.9 ts_0 hed7
 #GMSCOMMENT 2e2fb02e-f112-4473-b8b7-ce2631550124 POINT 17, 472344.5, 7604160.7 ts_0 hed8
 #GMSCOMMENT 2e2fb02e-f112-4473-b8b7-ce2631550124 POINT 18, 472509.9, 7604202.2 ts_0 hed9
 #GMSCOMMENT 2e2fb02e-f112-4473-b8b7-ce2631550124 POINT 19, 472602.2, 7604121.3 ts_0 hed10
 #GMSCOMMENT 2e2fb02e-f112-4473-b8b7-ce2631550124 POINT 20, 472912.2, 7604109.1 ts_0 hed11
 #GMSCOMMENT 2e2fb02e-f112-4473-b8b7-ce2631550124 POINT 21, 473433.3, 7604244.6 ts_0 hed12
 #GMSCOMMENT 2e2fb02e-f112-4473-b8b7-ce2631550124 POINT 22, 473637.8, 7604458.8 ts_0 hed13
 #GMSCOMMENT 2e2fb02e-f112-4473-b8b7-ce2631550124 POINT 23, 474152.1, 7604692.0 ts_0 hed14

 NUMBER OF HEADS....................................:   14
   NUMBER OF MULTILAYER HEADS.......................:    0
   MAXIMUM NUMBER OF LAYERS FOR MULTILAYER HEADS....:    6

 OBS1DRN6 -- OBSERVATION PROCESS (DRAIN FLOW OBSERVATIONS)
 VERSION 1.0, 10/15/98
 INPUT READ FROM UNIT   17
 #           CoverageGUID ObjectType ID X Y Time OBNAME
 #GMSCOMMENT e92ea15b-3da8-45cf-9442-a8f8b5e764c3 ARC 10 473416.14375 7604298.351 1.0 dr0
 #GMSCOMMENT e92ea15b-3da8-45cf-9442-a8f8b5e764c3 ARC 11 473622.42875 7604349.693 1.0 dr1
 #GMSCOMMENT e92ea15b-3da8-45cf-9442-a8f8b5e764c3 ARC 12 473814.6728 7604436.496 1.0 dr2
 #GMSCOMMENT e92ea15b-3da8-45cf-9442-a8f8b5e764c3 ARC 13 474041.4157 7604657.7815 1.0 dr3
 #GMSCOMMENT e92ea15b-3da8-45cf-9442-a8f8b5e764c3 ARC 14 474383.9955 7605052.1855 1.0 dr4
 #GMSCOMMENT e92ea15b-3da8-45cf-9442-a8f8b5e764c3 ARC 16 474383.04245 7604865.2525 1.0 dr5
 #GMSCOMMENT e92ea15b-3da8-45cf-9442-a8f8b5e764c3 ARC 18 473791.3666 7604307.6305 1.0 dr6
 #GMSCOMMENT e92ea15b-3da8-45cf-9442-a8f8b5e764c3 ARC 20 473369.4429 7604144.824 1.0 dr7
 #GMSCOMMENT e92ea15b-3da8-45cf-9442-a8f8b5e764c3 ARC 4 472195.62475 7604296.237 1.0 dr8
 #GMSCOMMENT e92ea15b-3da8-45cf-9442-a8f8b5e764c3 ARC 5 472392.42255 7604212.5335 1.0 dr9
 #GMSCOMMENT e92ea15b-3da8-45cf-9442-a8f8b5e764c3 ARC 6 472597.63235 7604158.522 1.0 dr10
 #GMSCOMMENT e92ea15b-3da8-45cf-9442-a8f8b5e764c3 ARC 7 472817.7506 7604109.729 1.0 dr11
 #GMSCOMMENT e92ea15b-3da8-45cf-9442-a8f8b5e764c3 ARC 8 473018.0439 7604131.392 1.0 dr12
 #GMSCOMMENT e92ea15b-3da8-45cf-9442-a8f8b5e764c3 ARC 9 473216.07755 7604224.908 1.0 dr13

 NUMBER OF FLOW-OBSERVATION DRAIN-CELL GROUPS.....:     14
   NUMBER OF CELLS IN DRAIN-CELL GROUPS...........:    318
   NUMBER OF DRAIN-CELL FLOWS.....................:     14

 OBS1GHB6 -- OBSERVATION PROCESS (GENERAL HEAD BOUNDARY FLOW OBSERVATIONS)
 VERSION 1.0, 10/15/98
 INPUT READ FROM UNIT   16
 #           CoverageGUID ObjectType ID X Y Time OBNAME
 #GMSCOMMENT e76778e7-3a21-4174-9ef9-a90938cd8174 ARC 10 474424.69860211 7605659.3756818 1.0 gb0
 #GMSCOMMENT e76778e7-3a21-4174-9ef9-a90938cd8174 ARC 11 473749.50507219 7605889.0763581 1.0 gb1
 #GMSCOMMENT e76778e7-3a21-4174-9ef9-a90938cd8174 ARC 12 473642.12671293 7605035.6927469 1.0 gb2
 #GMSCOMMENT e76778e7-3a21-4174-9ef9-a90938cd8174 ARC 13 473095.30699619 7604524.4782601 1.0 gb3
 #GMSCOMMENT e76778e7-3a21-4174-9ef9-a90938cd8174 ARC 14 472437.43597206 7604349.4613442 1.0 gb4
 #GMSCOMMENT e76778e7-3a21-4174-9ef9-a90938cd8174 ARC 5 473442.44593578 7602998.8064264 1.0 gb5
 #GMSCOMMENT e76778e7-3a21-4174-9ef9-a90938cd8174 ARC 6 473579.31336245 7603778.5989345 1.0 gb6
 #GMSCOMMENT e76778e7-3a21-4174-9ef9-a90938cd8174 ARC 7 474123.7245113 7604224.0269514 1.0 gb7
 #GMSCOMMENT e76778e7-3a21-4174-9ef9-a90938cd8174 ARC 8 474787.43945542 7604522.9923296 1.0 gb8
 #GMSCOMMENT e76778e7-3a21-4174-9ef9-a90938cd8174 ARC 9 475021.15211817 7605326.1222412 1.0 gb9

 NUMBER OF FLOW-OBSERVATION GENERAL-HEAD-CELL GROUPS:     10
   NUMBER OF CELLS IN GENERAL-HEAD-CELL GROUPS......:   2073
   NUMBER OF GENERAL-HEAD-CELL FLOWS................:     10

 OBS1BAS6F -- OBSERVATION PROCESS (CONSTANT-HEAD BOUNDARY FLOW OBSERVATIONS)
 VERSION 1.0, 12/03/99
 INPUT READ FROM UNIT  18
 #           CoverageGUID ObjectType ID X Y Time OBNAME
 #GMSCOMMENT 6d5c88e7-37cc-42e7-afd8-90312538a938 ARC 10 472833.75457315 7603554.8870029 1.0 ch0
 #GMSCOMMENT 6d5c88e7-37cc-42e7-afd8-90312538a938 ARC 11 472757.54995 7603409.1435 1.0 ch1
 #GMSCOMMENT 6d5c88e7-37cc-42e7-afd8-90312538a938 ARC 12 472744.63825 7603270.031 1.0 ch2
 #GMSCOMMENT 6d5c88e7-37cc-42e7-afd8-90312538a938 ARC 13 472869.02989601 7603160.5751483 1.0 ch3
 #GMSCOMMENT 6d5c88e7-37cc-42e7-afd8-90312538a938 ARC 14 472880.23374035 7603015.2879216 1.0 ch4
 #GMSCOMMENT 6d5c88e7-37cc-42e7-afd8-90312538a938 ARC 15 473039.87943869 7602936.9551801 1.0 ch5
 #GMSCOMMENT 6d5c88e7-37cc-42e7-afd8-90312538a938 ARC 16 473143.42917223 7602787.9975476 1.0 ch6
 #GMSCOMMENT 6d5c88e7-37cc-42e7-afd8-90312538a938 ARC 17 473291.55632513 7602681.9445505 1.0 ch7
 #GMSCOMMENT 6d5c88e7-37cc-42e7-afd8-90312538a938 ARC 3 472032.71304271 7604282.1622406 1.0 ch8
 #GMSCOMMENT 6d5c88e7-37cc-42e7-afd8-90312538a938 ARC 4 472052.33723468 7604128.7751563 1.0 ch9
 #GMSCOMMENT 6d5c88e7-37cc-42e7-afd8-90312538a938 ARC 5 472175.97551556 7604014.6432115 1.0 ch10
 #GMSCOMMENT 6d5c88e7-37cc-42e7-afd8-90312538a938 ARC 6 472231.57507003 7603867.7298571 1.0 ch11
 #GMSCOMMENT 6d5c88e7-37cc-42e7-afd8-90312538a938 ARC 7 472392.6464138 7603811.4515679 1.0 ch12
 #GMSCOMMENT 6d5c88e7-37cc-42e7-afd8-90312538a938 ARC 8 472560.85296771 7603761.4645402 1.0 ch13
 #GMSCOMMENT 6d5c88e7-37cc-42e7-afd8-90312538a938 ARC 9 472728.01916861 7603701.8077273 1.0 ch14

 NUMBER OF FLOW-OBSERVATION CONSTANT-HEAD-CELL GROUPS:   15
   NUMBER OF CELLS IN CONSTANT-HEAD-CELL GROUPS......:  177
   NUMBER OF CONSTANT-HEAD-CELL FLOWS................:   15

      16625 ELEMENTS IN X ARRAY ARE USED FOR OBSERVATIONS
       1640 ELEMENTS IN Z ARRAY ARE USED FOR OBSERVATIONS
        455 ELEMENTS IN IX ARRAY ARE USED FOR OBSERVATIONS

 COMMON ERROR VARIANCE FOR ALL OBSERVATIONS SET TO:       1.000    

    1502589  ELEMENTS OF X ARRAY USED OUT OF    1502589
     991616  ELEMENTS OF Z ARRAY USED OUT OF     991616
       3991  ELEMENTS OF IX ARRAY USED OUT OF       3991
          0  ELEMENTS OF XHS ARRAY USED OUT OF          1

 HEAD OBSERVATION VARIANCES ARE MULTIPLIED BY:       6.000    

 OBSERVED HEAD DATA -- TIME OFFSETS ARE MULTIPLIED BY:   1.0000    

                    REFER.
       OBSERVATION  STRESS    TIME                              STATISTIC   PLOT
  OBS#    NAME      PERIOD   OFFSET    OBSERVATION  STATISTIC     TYPE      SYM.
     1 hed1             1    0.000       829.3       20.32      STD. DEV.      1
     2 hed2             1    0.000       829.0       17.58      STD. DEV.      1
     3 hed3             1    0.000       829.2       17.58      STD. DEV.      1
     4 hed4             1    0.000       827.9       17.58      STD. DEV.      1
     5 hed5             1    0.000       829.0       18.08      STD. DEV.      1
     6 hed6             1    0.000       829.2       18.08      STD. DEV.      1
     7 hed7             1    0.000       827.3       17.58      STD. DEV.      1
     8 hed8             1    0.000       828.9       17.58      STD. DEV.      1
     9 hed9             1    0.000       830.3       19.14      STD. DEV.      1
    10 hed10            1    0.000       840.2       81.57      STD. DEV.      1
    11 hed11            1    0.000       841.8       81.57      STD. DEV.      1
    12 hed12            1    0.000       857.6       147.0      STD. DEV.      1
    13 hed13            1    0.000       860.8       52.28      STD. DEV.      1
    14 hed14            1    0.000       873.9       34.62      STD. DEV.      1

                                                     HEAD CHANGE
                                                      REFERENCE
        OBSERVATION                   ROW     COL    OBSERVATION
  OBS#     NAME       LAY  ROW  COL  OFFSET  OFFSET   (IF > 0)
     1  hed1            2  194   30  -0.061   0.356        0
     2  hed2            1  187   12   0.333  -0.401        0
     3  hed3            1  189   16  -0.108  -0.022        0
     4  hed4            2  195   39  -0.303   0.101        0
     5  hed5            2  194   48   0.026   0.494        0
     6  hed6            1  182   13   0.368   0.042        0
     7  hed7            1  182   24  -0.260   0.164        0
     8  hed8            1  181   30  -0.122  -0.040        0
     9  hed9            2  173   38  -0.042   0.143        0
    10  hed10           2  175   46  -0.446   0.185        0
    11  hed11           2  165   65  -0.088  -0.474        0
    12  hed12           3  140   90  -0.315   0.146        0
    13  hed13           4  120   95   0.476  -0.178        0
    14  hed14           4   90  117  -0.173  -0.214        0

 DRAIN-CELL FLOW OBSERVATION VARIANCES ARE MULTIPLIED BY:       1.000    

 OBSERVED DRAIN-CELL FLOW DATA
 -- TIME OFFSETS ARE MULTIPLIED BY:   1.0000    

 GROUP NUMBER:      1    BOUNDARY TYPE: DRN    NUMBER OF CELLS IN GROUP:     20
 NUMBER OF FLOW OBSERVATIONS:      1

                    REFER.              OBSERVED
       OBSERVATION  STRESS    TIME     DRAIN FLOW               STATISTIC   PLOT
  OBS#    NAME      PERIOD   OFFSET     GAIN (-)    STATISTIC     TYPE      SYM.
    15 dr0              1    0.000      -11.86       48.36      STD. DEV.      1

       LAYER  ROW  COLUMN    FACTOR
          1.  142.    83.     0.00
          1.  142.    83.     1.00
          1.  142.    84.     1.00
          1.  141.    84.     1.00
          1.  141.    85.     1.00
          1.  140.    85.     1.00
          1.  140.    86.     1.00
          1.  139.    86.     1.00
          1.  138.    86.     1.00
          1.  138.    87.     1.00
          1.  137.    87.     1.00
          1.  137.    88.     1.00
          1.  136.    88.     1.00
          1.  136.    89.     1.00
          1.  135.    89.     1.00
          1.  134.    89.     1.00
          1.  134.    90.     1.00
          1.  133.    90.     1.00
          1.  133.    91.     1.00
          1.  132.    91.     1.00

 GROUP NUMBER:      2    BOUNDARY TYPE: DRN    NUMBER OF CELLS IN GROUP:     25
 NUMBER OF FLOW OBSERVATIONS:      1

                    REFER.              OBSERVED
       OBSERVATION  STRESS    TIME     DRAIN FLOW               STATISTIC   PLOT
  OBS#    NAME      PERIOD   OFFSET     GAIN (-)    STATISTIC     TYPE      SYM.
    16 dr1              1    0.000      -15.65       68.20      STD. DEV.      1

       LAYER  ROW  COLUMN    FACTOR
          1.  132.    91.     0.00
          1.  132.    91.     1.00
          1.  132.    92.     1.00
          1.  131.    92.     1.00
          1.  131.    93.     1.00
          1.  130.    93.     1.00
          1.  130.    94.     1.00
          1.  130.    95.     1.00
          1.  129.    95.     1.00
          1.  129.    96.     1.00
          1.  128.    96.     1.00
          1.  128.    97.     1.00
          1.  127.    97.     1.00
          1.  127.    98.     1.00
          1.  127.    99.     1.00
          1.  126.    99.     1.00
          1.  126.   100.     1.00
          1.  125.   100.     1.00
          1.  125.   101.     1.00
          1.  124.   101.     1.00
          1.  124.   102.     1.00
          1.  124.   103.     1.00
          1.  123.   103.     1.00
          1.  123.   104.     1.00
          1.  122.   104.     1.00

 GROUP NUMBER:      3    BOUNDARY TYPE: DRN    NUMBER OF CELLS IN GROUP:     19
 NUMBER OF FLOW OBSERVATIONS:      1

                    REFER.              OBSERVED
       OBSERVATION  STRESS    TIME     DRAIN FLOW               STATISTIC   PLOT
  OBS#    NAME      PERIOD   OFFSET     GAIN (-)    STATISTIC     TYPE      SYM.
    17 dr2              1    0.000      -13.50       59.51      STD. DEV.      1

       LAYER  ROW  COLUMN    FACTOR
          1.  122.   104.     0.00
          1.  122.   104.     1.00
          1.  121.   104.     1.00
          1.  120.   104.     1.00
          1.  120.   105.     1.00
          1.  119.   105.     1.00
          1.  118.   105.     1.00
          1.  117.   105.     1.00
          1.  117.   106.     1.00
          1.  116.   106.     1.00
          1.  115.   106.     1.00
          1.  114.   106.     1.00
          1.  113.   106.     1.00
          1.  113.   107.     1.00
          1.  112.   107.     1.00
          1.  111.   107.     1.00
          1.  110.   107.     1.00
          1.  110.   108.     1.00
          1.  109.   108.     1.00

 GROUP NUMBER:      4    BOUNDARY TYPE: DRN    NUMBER OF CELLS IN GROUP:     36
 NUMBER OF FLOW OBSERVATIONS:      1

                    REFER.              OBSERVED
       OBSERVATION  STRESS    TIME     DRAIN FLOW               STATISTIC   PLOT
  OBS#    NAME      PERIOD   OFFSET     GAIN (-)    STATISTIC     TYPE      SYM.
    18 dr3              1    0.000      -11.86       404.4      STD. DEV.      1

       LAYER  ROW  COLUMN    FACTOR
          1.  109.   108.     0.00
          1.  109.   108.     1.00
          1.  108.   108.     1.00
          1.  107.   108.     1.00
          1.  106.   108.     1.00
          1.  106.   109.     1.00
          1.  105.   109.     1.00
          1.  104.   109.     1.00
          1.  103.   109.     1.00
          1.  103.   110.     1.00
          1.  102.   110.     1.00
          1.  101.   110.     1.00
          1.  100.   110.     1.00
          1.   99.   110.     1.00
          1.   99.   111.     1.00
          1.   98.   111.     1.00
          1.   97.   111.     1.00
          1.   96.   111.     1.00
          1.   96.   112.     1.00
          1.   95.   112.     1.00
          1.   94.   112.     1.00
          1.   93.   112.     1.00
          1.   92.   112.     1.00
          1.   92.   113.     1.00
          1.   91.   113.     1.00
          1.   90.   113.     1.00
          1.   89.   113.     1.00
          1.   88.   113.     1.00
          1.   88.   114.     1.00
          1.   87.   114.     1.00
          1.   86.   114.     1.00
          1.   85.   114.     1.00
          1.   85.   115.     1.00
          1.   84.   115.     1.00
          1.   83.   115.     1.00
          1.   82.   115.     1.00

 GROUP NUMBER:      5    BOUNDARY TYPE: DRN    NUMBER OF CELLS IN GROUP:     49
 NUMBER OF FLOW OBSERVATIONS:      1

                    REFER.              OBSERVED
       OBSERVATION  STRESS    TIME     DRAIN FLOW               STATISTIC   PLOT
  OBS#    NAME      PERIOD   OFFSET     GAIN (-)    STATISTIC     TYPE      SYM.
    19 dr4              1    0.000      -17.80       336.9      STD. DEV.      1

       LAYER  ROW  COLUMN    FACTOR
          1.   82.   115.     0.00
          1.   82.   115.     1.00
          1.   81.   115.     1.00
          1.   81.   116.     1.00
          1.   80.   116.     1.00
          1.   79.   116.     1.00
          1.   78.   116.     1.00
          1.   77.   116.     1.00
          1.   76.   116.     1.00
          1.   75.   116.     1.00
          1.   74.   116.     1.00
          1.   73.   116.     1.00
          1.   73.   117.     1.00
          1.   72.   117.     1.00
          1.   71.   117.     1.00
          1.   70.   117.     1.00
          1.   69.   117.     1.00
          1.   68.   117.     1.00
          1.   67.   117.     1.00
          1.   66.   117.     1.00
          1.   66.   118.     1.00
          1.   65.   118.     1.00
          1.   64.   118.     1.00
          1.   63.   118.     1.00
          1.   62.   118.     1.00
          1.   61.   118.     1.00
          1.   60.   118.     1.00
          1.   59.   118.     1.00
          1.   59.   119.     1.00
          1.   58.   119.     1.00
          1.   57.   119.     1.00
          1.   56.   119.     1.00
          1.   55.   119.     1.00
          1.   54.   119.     1.00
          1.   53.   119.     1.00
          1.   52.   119.     1.00
          1.   52.   120.     1.00
          1.   51.   120.     1.00
          1.   50.   120.     1.00
          1.   49.   120.     1.00
          1.   48.   120.     1.00
          1.   47.   120.     1.00
          1.   46.   120.     1.00
          1.   45.   120.     1.00
          1.   44.   120.     1.00
          1.   44.   121.     1.00
          1.   43.   121.     1.00
          1.   42.   121.     1.00
          1.   41.   121.     1.00

 GROUP NUMBER:      6    BOUNDARY TYPE: DRN    NUMBER OF CELLS IN GROUP:     20
 NUMBER OF FLOW OBSERVATIONS:      1

                    REFER.              OBSERVED
       OBSERVATION  STRESS    TIME     DRAIN FLOW               STATISTIC   PLOT
  OBS#    NAME      PERIOD   OFFSET     GAIN (-)    STATISTIC     TYPE      SYM.
    20 dr5              1    0.000      -15.83       54.22      STD. DEV.      1

       LAYER  ROW  COLUMN    FACTOR
          1.   68.   130.     1.00
          1.   69.   130.     1.00
          1.   69.   129.     1.00
          1.   69.   128.     1.00
          1.   70.   128.     1.00
          1.   70.   127.     1.00
          1.   71.   127.     1.00
          1.   71.   126.     1.00
          1.   71.   125.     1.00
          1.   72.   125.     1.00
          1.   72.   124.     1.00
          1.   73.   124.     1.00
          1.   73.   123.     1.00
          1.   73.   122.     1.00
          1.   74.   122.     1.00
          1.   74.   121.     1.00
          1.   75.   121.     1.00
          1.   75.   120.     1.00
          1.   75.   119.     1.00
          1.   76.   119.     1.00

 GROUP NUMBER:      7    BOUNDARY TYPE: DRN    NUMBER OF CELLS IN GROUP:     13
 NUMBER OF FLOW OBSERVATIONS:      1

                    REFER.              OBSERVED
       OBSERVATION  STRESS    TIME     DRAIN FLOW               STATISTIC   PLOT
  OBS#    NAME      PERIOD   OFFSET     GAIN (-)    STATISTIC     TYPE      SYM.
    21 dr6              1    0.000      -12.09       51.14      STD. DEV.      1

       LAYER  ROW  COLUMN    FACTOR
          1.  128.   111.     1.00
          1.  127.   111.     1.00
          1.  127.   110.     1.00
          1.  126.   110.     1.00
          1.  125.   110.     1.00
          1.  125.   109.     1.00
          1.  124.   109.     1.00
          1.  124.   108.     1.00
          1.  123.   108.     1.00
          1.  122.   108.     1.00
          1.  122.   107.     1.00
          1.  121.   107.     1.00
          1.  120.   107.     1.00

 GROUP NUMBER:      8    BOUNDARY TYPE: DRN    NUMBER OF CELLS IN GROUP:     16
 NUMBER OF FLOW OBSERVATIONS:      1

                    REFER.              OBSERVED
       OBSERVATION  STRESS    TIME     DRAIN FLOW               STATISTIC   PLOT
  OBS#    NAME      PERIOD   OFFSET     GAIN (-)    STATISTIC     TYPE      SYM.
    22 dr7              1    0.000      -11.86       65.82      STD. DEV.      1

       LAYER  ROW  COLUMN    FACTOR
          1.  150.    95.     1.00
          1.  150.    94.     1.00
          1.  149.    94.     1.00
          1.  149.    93.     1.00
          1.  149.    92.     1.00
          1.  148.    92.     1.00
          1.  148.    91.     1.00
          1.  148.    90.     1.00
          1.  147.    90.     1.00
          1.  147.    89.     1.00
          1.  147.    88.     1.00
          1.  147.    87.     1.00
          1.  146.    87.     1.00
          1.  146.    86.     1.00
          1.  146.    85.     1.00
          1.  145.    85.     1.00

 GROUP NUMBER:      9    BOUNDARY TYPE: DRN    NUMBER OF CELLS IN GROUP:     16
 NUMBER OF FLOW OBSERVATIONS:      1

                    REFER.              OBSERVED
       OBSERVATION  STRESS    TIME     DRAIN FLOW               STATISTIC   PLOT
  OBS#    NAME      PERIOD   OFFSET     GAIN (-)    STATISTIC     TYPE      SYM.
    23 dr8              1    0.000      -11.86       65.82      STD. DEV.      1

       LAYER  ROW  COLUMN    FACTOR
          1.  179.    11.     1.00
          1.  179.    12.     1.00
          1.  178.    12.     1.00
          1.  178.    13.     1.00
          1.  178.    14.     1.00
          1.  178.    15.     1.00
          1.  178.    16.     1.00
          1.  178.    17.     1.00
          1.  178.    18.     1.00
          1.  178.    19.     1.00
          1.  178.    20.     1.00
          1.  178.    21.     1.00
          1.  178.    22.     1.00
          1.  177.    22.     1.00
          1.  177.    23.     1.00
          1.  177.    24.     1.00

 GROUP NUMBER:     10    BOUNDARY TYPE: DRN    NUMBER OF CELLS IN GROUP:     18
 NUMBER OF FLOW OBSERVATIONS:      1

                    REFER.              OBSERVED
       OBSERVATION  STRESS    TIME     DRAIN FLOW               STATISTIC   PLOT
  OBS#    NAME      PERIOD   OFFSET     GAIN (-)    STATISTIC     TYPE      SYM.
    24 dr9              1    0.000      -11.86       65.82      STD. DEV.      1

       LAYER  ROW  COLUMN    FACTOR
          1.  177.    24.     0.00
          1.  177.    24.     1.00
          1.  177.    25.     1.00
          1.  177.    26.     1.00
          1.  177.    27.     1.00
          1.  177.    28.     1.00
          1.  177.    29.     1.00
          1.  176.    29.     1.00
          1.  176.    30.     1.00
          1.  176.    31.     1.00
          1.  176.    32.     1.00
          1.  176.    33.     1.00
          1.  176.    34.     1.00
          1.  176.    35.     1.00
          1.  176.    36.     1.00
          1.  176.    37.     1.00
          1.  175.    37.     1.00
          1.  175.    38.     1.00

 GROUP NUMBER:     11    BOUNDARY TYPE: DRN    NUMBER OF CELLS IN GROUP:     20
 NUMBER OF FLOW OBSERVATIONS:      1
